*SPEF "ieee 1481-1999"
*DESIGN "cpu_lab6"
*DATE "11:54:57 Monday June 09, 2025"
*VENDOR "The OpenROAD Project"
*PROGRAM "OpenROAD"
*VERSION "b16bda7e82721d10566ff7e2b68f1ff0be9f9e38"
*DESIGN_FLOW "NAME_SCOPE LOCAL" "PIN_CAP NONE"
*DIVIDER /
*DELIMITER :
*BUS_DELIMITER []
*T_UNIT 1 NS
*C_UNIT 1 PF
*R_UNIT 1 OHM
*L_UNIT 1 HENRY

*NAME_MAP
*3 net1
*4 net9
*5 net10
*6 net11
*7 clk
*8 control
*9 reset
*10 net2
*11 net3
*12 net4
*13 net5
*14 net6
*15 net7
*16 net8
*17 FILLER_0_0_104
*18 FILLER_0_0_113
*19 FILLER_0_0_125
*20 FILLER_0_0_137
*21 FILLER_0_0_141
*22 FILLER_0_0_15
*23 FILLER_0_0_153
*24 FILLER_0_0_165
*25 FILLER_0_0_169
*26 FILLER_0_0_181
*27 FILLER_0_0_189
*28 FILLER_0_0_27
*29 FILLER_0_0_29
*30 FILLER_0_0_3
*31 FILLER_0_0_41
*32 FILLER_0_0_53
*33 FILLER_0_0_57
*34 FILLER_0_0_69
*35 FILLER_0_0_81
*36 FILLER_0_0_85
*37 FILLER_0_0_93
*38 FILLER_0_0_97
*39 FILLER_0_10_109
*40 FILLER_0_10_121
*41 FILLER_0_10_133
*42 FILLER_0_10_139
*43 FILLER_0_10_141
*44 FILLER_0_10_15
*45 FILLER_0_10_153
*46 FILLER_0_10_165
*47 FILLER_0_10_177
*48 FILLER_0_10_189
*49 FILLER_0_10_27
*50 FILLER_0_10_29
*51 FILLER_0_10_3
*52 FILLER_0_10_41
*53 FILLER_0_10_53
*54 FILLER_0_10_65
*55 FILLER_0_10_77
*56 FILLER_0_10_83
*57 FILLER_0_10_85
*58 FILLER_0_10_97
*59 FILLER_0_11_105
*60 FILLER_0_11_111
*61 FILLER_0_11_113
*62 FILLER_0_11_125
*63 FILLER_0_11_137
*64 FILLER_0_11_149
*65 FILLER_0_11_161
*66 FILLER_0_11_167
*67 FILLER_0_11_169
*68 FILLER_0_11_18
*69 FILLER_0_11_181
*70 FILLER_0_11_189
*71 FILLER_0_11_30
*72 FILLER_0_11_42
*73 FILLER_0_11_54
*74 FILLER_0_11_57
*75 FILLER_0_11_6
*76 FILLER_0_11_69
*77 FILLER_0_11_81
*78 FILLER_0_11_93
*79 FILLER_0_12_109
*80 FILLER_0_12_121
*81 FILLER_0_12_133
*82 FILLER_0_12_139
*83 FILLER_0_12_141
*84 FILLER_0_12_153
*85 FILLER_0_12_165
*86 FILLER_0_12_177
*87 FILLER_0_12_18
*88 FILLER_0_12_189
*89 FILLER_0_12_26
*90 FILLER_0_12_29
*91 FILLER_0_12_41
*92 FILLER_0_12_53
*93 FILLER_0_12_6
*94 FILLER_0_12_65
*95 FILLER_0_12_77
*96 FILLER_0_12_83
*97 FILLER_0_12_85
*98 FILLER_0_12_97
*99 FILLER_0_13_105
*100 FILLER_0_13_111
*101 FILLER_0_13_113
*102 FILLER_0_13_125
*103 FILLER_0_13_137
*104 FILLER_0_13_149
*105 FILLER_0_13_15
*106 FILLER_0_13_161
*107 FILLER_0_13_167
*108 FILLER_0_13_169
*109 FILLER_0_13_181
*110 FILLER_0_13_189
*111 FILLER_0_13_27
*112 FILLER_0_13_3
*113 FILLER_0_13_39
*114 FILLER_0_13_51
*115 FILLER_0_13_55
*116 FILLER_0_13_57
*117 FILLER_0_13_69
*118 FILLER_0_13_81
*119 FILLER_0_13_93
*120 FILLER_0_14_109
*121 FILLER_0_14_121
*122 FILLER_0_14_133
*123 FILLER_0_14_139
*124 FILLER_0_14_141
*125 FILLER_0_14_153
*126 FILLER_0_14_165
*127 FILLER_0_14_177
*128 FILLER_0_14_18
*129 FILLER_0_14_189
*130 FILLER_0_14_26
*131 FILLER_0_14_29
*132 FILLER_0_14_41
*133 FILLER_0_14_53
*134 FILLER_0_14_6
*135 FILLER_0_14_65
*136 FILLER_0_14_77
*137 FILLER_0_14_83
*138 FILLER_0_14_85
*139 FILLER_0_14_97
*140 FILLER_0_15_105
*141 FILLER_0_15_111
*142 FILLER_0_15_113
*143 FILLER_0_15_125
*144 FILLER_0_15_137
*145 FILLER_0_15_149
*146 FILLER_0_15_161
*147 FILLER_0_15_167
*148 FILLER_0_15_169
*149 FILLER_0_15_18
*150 FILLER_0_15_181
*151 FILLER_0_15_30
*152 FILLER_0_15_42
*153 FILLER_0_15_54
*154 FILLER_0_15_57
*155 FILLER_0_15_6
*156 FILLER_0_15_69
*157 FILLER_0_15_81
*158 FILLER_0_15_93
*159 FILLER_0_16_109
*160 FILLER_0_16_121
*161 FILLER_0_16_133
*162 FILLER_0_16_139
*163 FILLER_0_16_141
*164 FILLER_0_16_153
*165 FILLER_0_16_165
*166 FILLER_0_16_177
*167 FILLER_0_16_18
*168 FILLER_0_16_189
*169 FILLER_0_16_26
*170 FILLER_0_16_29
*171 FILLER_0_16_41
*172 FILLER_0_16_53
*173 FILLER_0_16_6
*174 FILLER_0_16_65
*175 FILLER_0_16_77
*176 FILLER_0_16_83
*177 FILLER_0_16_85
*178 FILLER_0_16_97
*179 FILLER_0_17_105
*180 FILLER_0_17_111
*181 FILLER_0_17_113
*182 FILLER_0_17_125
*183 FILLER_0_17_137
*184 FILLER_0_17_149
*185 FILLER_0_17_161
*186 FILLER_0_17_167
*187 FILLER_0_17_169
*188 FILLER_0_17_18
*189 FILLER_0_17_181
*190 FILLER_0_17_189
*191 FILLER_0_17_30
*192 FILLER_0_17_42
*193 FILLER_0_17_54
*194 FILLER_0_17_57
*195 FILLER_0_17_6
*196 FILLER_0_17_69
*197 FILLER_0_17_81
*198 FILLER_0_17_93
*199 FILLER_0_18_109
*200 FILLER_0_18_121
*201 FILLER_0_18_133
*202 FILLER_0_18_139
*203 FILLER_0_18_141
*204 FILLER_0_18_15
*205 FILLER_0_18_153
*206 FILLER_0_18_165
*207 FILLER_0_18_177
*208 FILLER_0_18_189
*209 FILLER_0_18_27
*210 FILLER_0_18_29
*211 FILLER_0_18_3
*212 FILLER_0_18_41
*213 FILLER_0_18_53
*214 FILLER_0_18_65
*215 FILLER_0_18_77
*216 FILLER_0_18_83
*217 FILLER_0_18_85
*218 FILLER_0_18_97
*219 FILLER_0_19_105
*220 FILLER_0_19_111
*221 FILLER_0_19_113
*222 FILLER_0_19_125
*223 FILLER_0_19_137
*224 FILLER_0_19_149
*225 FILLER_0_19_15
*226 FILLER_0_19_161
*227 FILLER_0_19_167
*228 FILLER_0_19_169
*229 FILLER_0_19_181
*230 FILLER_0_19_189
*231 FILLER_0_19_27
*232 FILLER_0_19_3
*233 FILLER_0_19_39
*234 FILLER_0_19_51
*235 FILLER_0_19_55
*236 FILLER_0_19_57
*237 FILLER_0_19_69
*238 FILLER_0_19_81
*239 FILLER_0_19_93
*240 FILLER_0_1_105
*241 FILLER_0_1_111
*242 FILLER_0_1_113
*243 FILLER_0_1_125
*244 FILLER_0_1_137
*245 FILLER_0_1_149
*246 FILLER_0_1_15
*247 FILLER_0_1_161
*248 FILLER_0_1_167
*249 FILLER_0_1_169
*250 FILLER_0_1_181
*251 FILLER_0_1_189
*252 FILLER_0_1_27
*253 FILLER_0_1_3
*254 FILLER_0_1_39
*255 FILLER_0_1_51
*256 FILLER_0_1_55
*257 FILLER_0_1_57
*258 FILLER_0_1_69
*259 FILLER_0_1_81
*260 FILLER_0_1_93
*261 FILLER_0_20_109
*262 FILLER_0_20_121
*263 FILLER_0_20_133
*264 FILLER_0_20_139
*265 FILLER_0_20_141
*266 FILLER_0_20_15
*267 FILLER_0_20_153
*268 FILLER_0_20_165
*269 FILLER_0_20_177
*270 FILLER_0_20_189
*271 FILLER_0_20_27
*272 FILLER_0_20_29
*273 FILLER_0_20_3
*274 FILLER_0_20_41
*275 FILLER_0_20_53
*276 FILLER_0_20_65
*277 FILLER_0_20_77
*278 FILLER_0_20_83
*279 FILLER_0_20_85
*280 FILLER_0_20_97
*281 FILLER_0_21_105
*282 FILLER_0_21_111
*283 FILLER_0_21_113
*284 FILLER_0_21_125
*285 FILLER_0_21_137
*286 FILLER_0_21_149
*287 FILLER_0_21_15
*288 FILLER_0_21_161
*289 FILLER_0_21_167
*290 FILLER_0_21_169
*291 FILLER_0_21_181
*292 FILLER_0_21_189
*293 FILLER_0_21_27
*294 FILLER_0_21_3
*295 FILLER_0_21_39
*296 FILLER_0_21_51
*297 FILLER_0_21_55
*298 FILLER_0_21_57
*299 FILLER_0_21_69
*300 FILLER_0_21_81
*301 FILLER_0_21_93
*302 FILLER_0_22_109
*303 FILLER_0_22_121
*304 FILLER_0_22_133
*305 FILLER_0_22_139
*306 FILLER_0_22_141
*307 FILLER_0_22_15
*308 FILLER_0_22_153
*309 FILLER_0_22_165
*310 FILLER_0_22_177
*311 FILLER_0_22_189
*312 FILLER_0_22_27
*313 FILLER_0_22_29
*314 FILLER_0_22_3
*315 FILLER_0_22_41
*316 FILLER_0_22_53
*317 FILLER_0_22_65
*318 FILLER_0_22_77
*319 FILLER_0_22_83
*320 FILLER_0_22_85
*321 FILLER_0_22_97
*322 FILLER_0_23_105
*323 FILLER_0_23_111
*324 FILLER_0_23_113
*325 FILLER_0_23_125
*326 FILLER_0_23_137
*327 FILLER_0_23_149
*328 FILLER_0_23_15
*329 FILLER_0_23_161
*330 FILLER_0_23_167
*331 FILLER_0_23_169
*332 FILLER_0_23_181
*333 FILLER_0_23_189
*334 FILLER_0_23_27
*335 FILLER_0_23_3
*336 FILLER_0_23_39
*337 FILLER_0_23_51
*338 FILLER_0_23_55
*339 FILLER_0_23_57
*340 FILLER_0_23_69
*341 FILLER_0_23_81
*342 FILLER_0_23_93
*343 FILLER_0_24_109
*344 FILLER_0_24_121
*345 FILLER_0_24_133
*346 FILLER_0_24_139
*347 FILLER_0_24_141
*348 FILLER_0_24_15
*349 FILLER_0_24_153
*350 FILLER_0_24_165
*351 FILLER_0_24_177
*352 FILLER_0_24_189
*353 FILLER_0_24_27
*354 FILLER_0_24_29
*355 FILLER_0_24_3
*356 FILLER_0_24_41
*357 FILLER_0_24_53
*358 FILLER_0_24_65
*359 FILLER_0_24_77
*360 FILLER_0_24_83
*361 FILLER_0_24_85
*362 FILLER_0_24_97
*363 FILLER_0_25_105
*364 FILLER_0_25_111
*365 FILLER_0_25_113
*366 FILLER_0_25_125
*367 FILLER_0_25_137
*368 FILLER_0_25_149
*369 FILLER_0_25_15
*370 FILLER_0_25_161
*371 FILLER_0_25_167
*372 FILLER_0_25_169
*373 FILLER_0_25_181
*374 FILLER_0_25_189
*375 FILLER_0_25_27
*376 FILLER_0_25_3
*377 FILLER_0_25_39
*378 FILLER_0_25_51
*379 FILLER_0_25_55
*380 FILLER_0_25_57
*381 FILLER_0_25_69
*382 FILLER_0_25_81
*383 FILLER_0_25_93
*384 FILLER_0_26_109
*385 FILLER_0_26_121
*386 FILLER_0_26_133
*387 FILLER_0_26_139
*388 FILLER_0_26_141
*389 FILLER_0_26_15
*390 FILLER_0_26_153
*391 FILLER_0_26_165
*392 FILLER_0_26_177
*393 FILLER_0_26_189
*394 FILLER_0_26_27
*395 FILLER_0_26_29
*396 FILLER_0_26_3
*397 FILLER_0_26_41
*398 FILLER_0_26_53
*399 FILLER_0_26_65
*400 FILLER_0_26_77
*401 FILLER_0_26_83
*402 FILLER_0_26_85
*403 FILLER_0_26_97
*404 FILLER_0_27_104
*405 FILLER_0_27_113
*406 FILLER_0_27_125
*407 FILLER_0_27_137
*408 FILLER_0_27_141
*409 FILLER_0_27_15
*410 FILLER_0_27_153
*411 FILLER_0_27_165
*412 FILLER_0_27_169
*413 FILLER_0_27_181
*414 FILLER_0_27_189
*415 FILLER_0_27_27
*416 FILLER_0_27_29
*417 FILLER_0_27_3
*418 FILLER_0_27_41
*419 FILLER_0_27_53
*420 FILLER_0_27_57
*421 FILLER_0_27_69
*422 FILLER_0_27_81
*423 FILLER_0_27_85
*424 FILLER_0_27_93
*425 FILLER_0_27_97
*426 FILLER_0_2_109
*427 FILLER_0_2_121
*428 FILLER_0_2_133
*429 FILLER_0_2_139
*430 FILLER_0_2_141
*431 FILLER_0_2_15
*432 FILLER_0_2_153
*433 FILLER_0_2_165
*434 FILLER_0_2_177
*435 FILLER_0_2_189
*436 FILLER_0_2_27
*437 FILLER_0_2_29
*438 FILLER_0_2_3
*439 FILLER_0_2_41
*440 FILLER_0_2_53
*441 FILLER_0_2_65
*442 FILLER_0_2_77
*443 FILLER_0_2_83
*444 FILLER_0_2_85
*445 FILLER_0_2_97
*446 FILLER_0_3_105
*447 FILLER_0_3_111
*448 FILLER_0_3_113
*449 FILLER_0_3_125
*450 FILLER_0_3_137
*451 FILLER_0_3_149
*452 FILLER_0_3_15
*453 FILLER_0_3_161
*454 FILLER_0_3_167
*455 FILLER_0_3_169
*456 FILLER_0_3_181
*457 FILLER_0_3_189
*458 FILLER_0_3_27
*459 FILLER_0_3_3
*460 FILLER_0_3_39
*461 FILLER_0_3_51
*462 FILLER_0_3_55
*463 FILLER_0_3_57
*464 FILLER_0_3_69
*465 FILLER_0_3_81
*466 FILLER_0_3_93
*467 FILLER_0_4_109
*468 FILLER_0_4_121
*469 FILLER_0_4_133
*470 FILLER_0_4_139
*471 FILLER_0_4_141
*472 FILLER_0_4_15
*473 FILLER_0_4_153
*474 FILLER_0_4_165
*475 FILLER_0_4_177
*476 FILLER_0_4_189
*477 FILLER_0_4_27
*478 FILLER_0_4_29
*479 FILLER_0_4_3
*480 FILLER_0_4_41
*481 FILLER_0_4_53
*482 FILLER_0_4_65
*483 FILLER_0_4_77
*484 FILLER_0_4_83
*485 FILLER_0_4_85
*486 FILLER_0_4_97
*487 FILLER_0_5_105
*488 FILLER_0_5_111
*489 FILLER_0_5_113
*490 FILLER_0_5_125
*491 FILLER_0_5_137
*492 FILLER_0_5_149
*493 FILLER_0_5_15
*494 FILLER_0_5_161
*495 FILLER_0_5_167
*496 FILLER_0_5_169
*497 FILLER_0_5_181
*498 FILLER_0_5_189
*499 FILLER_0_5_27
*500 FILLER_0_5_3
*501 FILLER_0_5_39
*502 FILLER_0_5_51
*503 FILLER_0_5_55
*504 FILLER_0_5_57
*505 FILLER_0_5_69
*506 FILLER_0_5_81
*507 FILLER_0_5_93
*508 FILLER_0_6_109
*509 FILLER_0_6_121
*510 FILLER_0_6_133
*511 FILLER_0_6_139
*512 FILLER_0_6_141
*513 FILLER_0_6_15
*514 FILLER_0_6_153
*515 FILLER_0_6_165
*516 FILLER_0_6_177
*517 FILLER_0_6_189
*518 FILLER_0_6_27
*519 FILLER_0_6_29
*520 FILLER_0_6_3
*521 FILLER_0_6_41
*522 FILLER_0_6_53
*523 FILLER_0_6_65
*524 FILLER_0_6_77
*525 FILLER_0_6_83
*526 FILLER_0_6_85
*527 FILLER_0_6_97
*528 FILLER_0_7_105
*529 FILLER_0_7_111
*530 FILLER_0_7_113
*531 FILLER_0_7_125
*532 FILLER_0_7_137
*533 FILLER_0_7_149
*534 FILLER_0_7_15
*535 FILLER_0_7_161
*536 FILLER_0_7_167
*537 FILLER_0_7_169
*538 FILLER_0_7_181
*539 FILLER_0_7_189
*540 FILLER_0_7_27
*541 FILLER_0_7_3
*542 FILLER_0_7_39
*543 FILLER_0_7_51
*544 FILLER_0_7_55
*545 FILLER_0_7_57
*546 FILLER_0_7_69
*547 FILLER_0_7_81
*548 FILLER_0_7_93
*549 FILLER_0_8_109
*550 FILLER_0_8_121
*551 FILLER_0_8_133
*552 FILLER_0_8_139
*553 FILLER_0_8_141
*554 FILLER_0_8_15
*555 FILLER_0_8_153
*556 FILLER_0_8_165
*557 FILLER_0_8_177
*558 FILLER_0_8_189
*559 FILLER_0_8_27
*560 FILLER_0_8_29
*561 FILLER_0_8_3
*562 FILLER_0_8_41
*563 FILLER_0_8_53
*564 FILLER_0_8_65
*565 FILLER_0_8_77
*566 FILLER_0_8_83
*567 FILLER_0_8_85
*568 FILLER_0_8_97
*569 FILLER_0_9_105
*570 FILLER_0_9_111
*571 FILLER_0_9_113
*572 FILLER_0_9_125
*573 FILLER_0_9_137
*574 FILLER_0_9_149
*575 FILLER_0_9_15
*576 FILLER_0_9_161
*577 FILLER_0_9_167
*578 FILLER_0_9_169
*579 FILLER_0_9_181
*580 FILLER_0_9_189
*581 FILLER_0_9_27
*582 FILLER_0_9_3
*583 FILLER_0_9_39
*584 FILLER_0_9_51
*585 FILLER_0_9_55
*586 FILLER_0_9_57
*587 FILLER_0_9_69
*588 FILLER_0_9_81
*589 FILLER_0_9_93
*590 PHY_EDGE_ROW_0_Left_28
*591 PHY_EDGE_ROW_0_Right_0
*592 PHY_EDGE_ROW_10_Left_38
*593 PHY_EDGE_ROW_10_Right_10
*594 PHY_EDGE_ROW_11_Left_39
*595 PHY_EDGE_ROW_11_Right_11
*596 PHY_EDGE_ROW_12_Left_40
*597 PHY_EDGE_ROW_12_Right_12
*598 PHY_EDGE_ROW_13_Left_41
*599 PHY_EDGE_ROW_13_Right_13
*600 PHY_EDGE_ROW_14_Left_42
*601 PHY_EDGE_ROW_14_Right_14
*602 PHY_EDGE_ROW_15_Left_43
*603 PHY_EDGE_ROW_15_Right_15
*604 PHY_EDGE_ROW_16_Left_44
*605 PHY_EDGE_ROW_16_Right_16
*606 PHY_EDGE_ROW_17_Left_45
*607 PHY_EDGE_ROW_17_Right_17
*608 PHY_EDGE_ROW_18_Left_46
*609 PHY_EDGE_ROW_18_Right_18
*610 PHY_EDGE_ROW_19_Left_47
*611 PHY_EDGE_ROW_19_Right_19
*612 PHY_EDGE_ROW_1_Left_29
*613 PHY_EDGE_ROW_1_Right_1
*614 PHY_EDGE_ROW_20_Left_48
*615 PHY_EDGE_ROW_20_Right_20
*616 PHY_EDGE_ROW_21_Left_49
*617 PHY_EDGE_ROW_21_Right_21
*618 PHY_EDGE_ROW_22_Left_50
*619 PHY_EDGE_ROW_22_Right_22
*620 PHY_EDGE_ROW_23_Left_51
*621 PHY_EDGE_ROW_23_Right_23
*622 PHY_EDGE_ROW_24_Left_52
*623 PHY_EDGE_ROW_24_Right_24
*624 PHY_EDGE_ROW_25_Left_53
*625 PHY_EDGE_ROW_25_Right_25
*626 PHY_EDGE_ROW_26_Left_54
*627 PHY_EDGE_ROW_26_Right_26
*628 PHY_EDGE_ROW_27_Left_55
*629 PHY_EDGE_ROW_27_Right_27
*630 PHY_EDGE_ROW_2_Left_30
*631 PHY_EDGE_ROW_2_Right_2
*632 PHY_EDGE_ROW_3_Left_31
*633 PHY_EDGE_ROW_3_Right_3
*634 PHY_EDGE_ROW_4_Left_32
*635 PHY_EDGE_ROW_4_Right_4
*636 PHY_EDGE_ROW_5_Left_33
*637 PHY_EDGE_ROW_5_Right_5
*638 PHY_EDGE_ROW_6_Left_34
*639 PHY_EDGE_ROW_6_Right_6
*640 PHY_EDGE_ROW_7_Left_35
*641 PHY_EDGE_ROW_7_Right_7
*642 PHY_EDGE_ROW_8_Left_36
*643 PHY_EDGE_ROW_8_Right_8
*644 PHY_EDGE_ROW_9_Left_37
*645 PHY_EDGE_ROW_9_Right_9
*646 TAP_TAPCELL_ROW_0_56
*647 TAP_TAPCELL_ROW_0_57
*648 TAP_TAPCELL_ROW_0_58
*649 TAP_TAPCELL_ROW_0_59
*650 TAP_TAPCELL_ROW_0_60
*651 TAP_TAPCELL_ROW_0_61
*652 TAP_TAPCELL_ROW_10_89
*653 TAP_TAPCELL_ROW_10_90
*654 TAP_TAPCELL_ROW_10_91
*655 TAP_TAPCELL_ROW_11_92
*656 TAP_TAPCELL_ROW_11_93
*657 TAP_TAPCELL_ROW_11_94
*658 TAP_TAPCELL_ROW_12_95
*659 TAP_TAPCELL_ROW_12_96
*660 TAP_TAPCELL_ROW_12_97
*661 TAP_TAPCELL_ROW_13_100
*662 TAP_TAPCELL_ROW_13_98
*663 TAP_TAPCELL_ROW_13_99
*664 TAP_TAPCELL_ROW_14_101
*665 TAP_TAPCELL_ROW_14_102
*666 TAP_TAPCELL_ROW_14_103
*667 TAP_TAPCELL_ROW_15_104
*668 TAP_TAPCELL_ROW_15_105
*669 TAP_TAPCELL_ROW_15_106
*670 TAP_TAPCELL_ROW_16_107
*671 TAP_TAPCELL_ROW_16_108
*672 TAP_TAPCELL_ROW_16_109
*673 TAP_TAPCELL_ROW_17_110
*674 TAP_TAPCELL_ROW_17_111
*675 TAP_TAPCELL_ROW_17_112
*676 TAP_TAPCELL_ROW_18_113
*677 TAP_TAPCELL_ROW_18_114
*678 TAP_TAPCELL_ROW_18_115
*679 TAP_TAPCELL_ROW_19_116
*680 TAP_TAPCELL_ROW_19_117
*681 TAP_TAPCELL_ROW_19_118
*682 TAP_TAPCELL_ROW_1_62
*683 TAP_TAPCELL_ROW_1_63
*684 TAP_TAPCELL_ROW_1_64
*685 TAP_TAPCELL_ROW_20_119
*686 TAP_TAPCELL_ROW_20_120
*687 TAP_TAPCELL_ROW_20_121
*688 TAP_TAPCELL_ROW_21_122
*689 TAP_TAPCELL_ROW_21_123
*690 TAP_TAPCELL_ROW_21_124
*691 TAP_TAPCELL_ROW_22_125
*692 TAP_TAPCELL_ROW_22_126
*693 TAP_TAPCELL_ROW_22_127
*694 TAP_TAPCELL_ROW_23_128
*695 TAP_TAPCELL_ROW_23_129
*696 TAP_TAPCELL_ROW_23_130
*697 TAP_TAPCELL_ROW_24_131
*698 TAP_TAPCELL_ROW_24_132
*699 TAP_TAPCELL_ROW_24_133
*700 TAP_TAPCELL_ROW_25_134
*701 TAP_TAPCELL_ROW_25_135
*702 TAP_TAPCELL_ROW_25_136
*703 TAP_TAPCELL_ROW_26_137
*704 TAP_TAPCELL_ROW_26_138
*705 TAP_TAPCELL_ROW_26_139
*706 TAP_TAPCELL_ROW_27_140
*707 TAP_TAPCELL_ROW_27_141
*708 TAP_TAPCELL_ROW_27_142
*709 TAP_TAPCELL_ROW_27_143
*710 TAP_TAPCELL_ROW_27_144
*711 TAP_TAPCELL_ROW_27_145
*712 TAP_TAPCELL_ROW_2_65
*713 TAP_TAPCELL_ROW_2_66
*714 TAP_TAPCELL_ROW_2_67
*715 TAP_TAPCELL_ROW_3_68
*716 TAP_TAPCELL_ROW_3_69
*717 TAP_TAPCELL_ROW_3_70
*718 TAP_TAPCELL_ROW_4_71
*719 TAP_TAPCELL_ROW_4_72
*720 TAP_TAPCELL_ROW_4_73
*721 TAP_TAPCELL_ROW_5_74
*722 TAP_TAPCELL_ROW_5_75
*723 TAP_TAPCELL_ROW_5_76
*724 TAP_TAPCELL_ROW_6_77
*725 TAP_TAPCELL_ROW_6_78
*726 TAP_TAPCELL_ROW_6_79
*727 TAP_TAPCELL_ROW_7_80
*728 TAP_TAPCELL_ROW_7_81
*729 TAP_TAPCELL_ROW_7_82
*730 TAP_TAPCELL_ROW_8_83
*731 TAP_TAPCELL_ROW_8_84
*732 TAP_TAPCELL_ROW_8_85
*733 TAP_TAPCELL_ROW_9_86
*734 TAP_TAPCELL_ROW_9_87
*735 TAP_TAPCELL_ROW_9_88
*736 cpu_lab6_1
*737 cpu_lab6_10
*738 cpu_lab6_11
*739 cpu_lab6_2
*740 cpu_lab6_3
*741 cpu_lab6_4
*742 cpu_lab6_5
*743 cpu_lab6_6
*744 cpu_lab6_7
*745 cpu_lab6_8
*746 cpu_lab6_9

*PORTS
an[0] O
an[1] O
an[2] O
an[3] O
clk I
control I
reset I
seg[0] O
seg[1] O
seg[2] O
seg[3] O
seg[4] O
seg[5] O
seg[6] O

*D_NET *3 0.000656578
*CONN
*P an[0] O
*I *736:LO O *D sky130_fd_sc_hd__conb_1
*CAP
1 an[0] 0.000302607
2 *736:LO 0.000302607
3 an[0] an[1] 0
4 an[0] an[3] 2.87684e-05
5 an[0] seg[0] 0
6 an[0] seg[5] 2.25951e-05
*RES
1 *736:LO an[0] 19.9443 
*END

*D_NET *4 0.000508359
*CONN
*P an[1] O
*I *746:HI O *D sky130_fd_sc_hd__conb_1
*CAP
1 an[1] 0.000242882
2 *746:HI 0.000242882
3 an[1] an[3] 2.25951e-05
4 an[0] an[1] 0
*RES
1 *746:HI an[1] 18.73 
*END

*D_NET *5 0.000582484
*CONN
*P an[2] O
*I *737:HI O *D sky130_fd_sc_hd__conb_1
*CAP
1 an[2] 0.000279944
2 *737:HI 0.000279944
3 an[2] seg[0] 2.25951e-05
*RES
1 *737:HI an[2] 20.4803 
*END

*D_NET *6 0.000576861
*CONN
*P an[3] O
*I *738:HI O *D sky130_fd_sc_hd__conb_1
*CAP
1 an[3] 0.000262749
2 *738:HI 0.000262749
3 an[0] an[3] 2.87684e-05
4 an[1] an[3] 2.25951e-05
*RES
1 *738:HI an[3] 20.4803 
*END

*D_NET *10 0.000514918
*CONN
*P seg[0] O
*I *739:LO O *D sky130_fd_sc_hd__conb_1
*CAP
1 seg[0] 0.000230192
2 *739:LO 0.000230192
3 seg[0] seg[5] 3.19385e-05
4 an[0] seg[0] 0
5 an[2] seg[0] 2.25951e-05
*RES
1 *739:LO seg[0] 18.73 
*END

*D_NET *11 0.00059239
*CONN
*P seg[1] O
*I *740:LO O *D sky130_fd_sc_hd__conb_1
*CAP
1 seg[1] 0.000296195
2 *740:LO 0.000296195
*RES
1 *740:LO seg[1] 18.8021 
*END

*D_NET *12 0.00084668
*CONN
*P seg[2] O
*I *741:LO O *D sky130_fd_sc_hd__conb_1
*CAP
1 seg[2] 0.00042334
2 *741:LO 0.00042334
3 seg[2] seg[6] 0
*RES
1 *741:LO seg[2] 21.8357 
*END

*D_NET *13 0.00103114
*CONN
*P seg[3] O
*I *742:LO O *D sky130_fd_sc_hd__conb_1
*CAP
1 seg[3] 0.000515568
2 *742:LO 0.000515568
3 seg[3] seg[4] 0
*RES
1 *742:LO seg[3] 23.6571 
*END

*D_NET *14 0.00123953
*CONN
*P seg[4] O
*I *743:LO O *D sky130_fd_sc_hd__conb_1
*CAP
1 seg[4] 0.000619764
2 *743:LO 0.000619764
3 seg[3] seg[4] 0
*RES
1 *743:LO seg[4] 25.55 
*END

*D_NET *15 0.000638595
*CONN
*P seg[5] O
*I *744:LO O *D sky130_fd_sc_hd__conb_1
*CAP
1 seg[5] 0.000292031
2 *744:LO 0.000292031
3 an[0] seg[5] 2.25951e-05
4 seg[0] seg[5] 3.19385e-05
*RES
1 *744:LO seg[5] 20.4803 
*END

*D_NET *16 0.00105966
*CONN
*P seg[6] O
*I *745:LO O *D sky130_fd_sc_hd__conb_1
*CAP
1 seg[6] 0.000529831
2 *745:LO 0.000529831
3 seg[2] seg[6] 0
*RES
1 *745:LO seg[6] 23.7286 
*END
