*SPEF "ieee 1481-1999"
*DESIGN "myBasic_ALU"
*DATE "12:18:18 Sunday May 04, 2025"
*VENDOR "The OpenROAD Project"
*PROGRAM "OpenROAD"
*VERSION "b16bda7e82721d10566ff7e2b68f1ff0be9f9e38"
*DESIGN_FLOW "NAME_SCOPE LOCAL" "PIN_CAP NONE"
*DIVIDER /
*DELIMITER :
*BUS_DELIMITER []
*T_UNIT 1 NS
*C_UNIT 1 PF
*R_UNIT 1 OHM
*L_UNIT 1 HENRY

*NAME_MAP
*1 A[0]
*2 A[1]
*3 A[2]
*4 A[3]
*5 A[4]
*6 A[5]
*7 A[6]
*8 A[7]
*9 B[0]
*10 B[1]
*11 B[2]
*12 B[3]
*13 B[4]
*14 B[5]
*15 B[6]
*16 B[7]
*19 opcode[0]
*20 opcode[1]
*21 opcode[2]
*22 out[0]
*23 out[1]
*24 out[2]
*25 out[3]
*26 out[4]
*27 out[5]
*28 out[6]
*29 out[7]
*30 out[8]
*31 _000_
*32 _001_
*33 _002_
*34 _003_
*35 _004_
*36 _005_
*37 _006_
*38 _007_
*39 _008_
*40 _009_
*41 _010_
*42 _011_
*43 _012_
*44 _013_
*45 _014_
*46 _015_
*47 _016_
*48 _017_
*49 _018_
*50 _019_
*51 _020_
*52 _021_
*53 _022_
*54 _023_
*55 _024_
*56 _025_
*57 _026_
*58 _027_
*59 _028_
*60 _029_
*61 _030_
*62 _031_
*63 _032_
*64 _033_
*65 _034_
*66 _035_
*67 _036_
*68 _037_
*69 _038_
*70 _039_
*71 _040_
*72 _041_
*73 _042_
*74 _043_
*75 _044_
*76 _045_
*77 _046_
*78 _047_
*79 _048_
*80 _049_
*81 _050_
*82 _051_
*83 _052_
*84 _053_
*85 _054_
*86 _055_
*87 _056_
*88 _057_
*89 _058_
*90 _059_
*91 _060_
*92 _061_
*93 _062_
*94 _063_
*95 _064_
*96 _065_
*97 _066_
*98 _067_
*99 _068_
*100 _069_
*101 _070_
*102 _071_
*103 _072_
*104 _073_
*105 _074_
*106 _075_
*107 _076_
*108 _077_
*109 _078_
*110 _079_
*111 _080_
*112 _081_
*113 _082_
*114 _083_
*115 _084_
*116 _085_
*117 _086_
*118 _087_
*119 _088_
*120 _089_
*121 _090_
*122 _091_
*123 _092_
*124 _093_
*125 _094_
*126 _095_
*127 _096_
*128 _097_
*129 _098_
*130 _099_
*131 _100_
*132 _101_
*133 _102_
*134 _103_
*135 _104_
*136 _105_
*137 _106_
*138 _107_
*139 _108_
*140 _109_
*141 _110_
*142 _111_
*143 _112_
*144 _113_
*145 _114_
*146 _115_
*147 _116_
*148 _117_
*149 _118_
*150 _119_
*151 _120_
*152 _121_
*153 _122_
*154 _123_
*155 _124_
*156 _125_
*157 _126_
*158 _127_
*159 _128_
*160 _129_
*161 _130_
*162 _131_
*163 _132_
*164 _133_
*165 _134_
*166 _135_
*167 _136_
*168 _137_
*169 _138_
*170 _139_
*171 _140_
*172 _141_
*173 _142_
*174 _143_
*175 _144_
*176 _145_
*177 _146_
*178 _147_
*179 _148_
*180 _149_
*181 _150_
*182 _151_
*183 _152_
*184 _153_
*185 _154_
*186 _155_
*187 _156_
*188 _157_
*189 _158_
*190 _159_
*191 _160_
*192 _161_
*193 _162_
*194 _163_
*195 _164_
*196 _165_
*197 _166_
*198 _167_
*199 _168_
*200 _169_
*201 net1
*202 net10
*203 net11
*204 net12
*205 net13
*206 net14
*207 net15
*208 net16
*209 net17
*210 net18
*211 net19
*212 net2
*213 net20
*214 net21
*215 net22
*216 net23
*217 net24
*218 net25
*219 net26
*220 net27
*221 net28
*222 net29
*223 net3
*224 net30
*225 net31
*226 net4
*227 net5
*228 net6
*229 net7
*230 net8
*231 net9
*232 FILLER_0_0_100
*233 FILLER_0_0_113
*234 FILLER_0_0_15
*235 FILLER_0_0_27
*236 FILLER_0_0_29
*237 FILLER_0_0_3
*238 FILLER_0_0_33
*239 FILLER_0_0_44
*240 FILLER_0_0_57
*241 FILLER_0_0_63
*242 FILLER_0_0_83
*243 FILLER_0_0_85
*244 FILLER_0_10_104
*245 FILLER_0_10_11
*246 FILLER_0_10_117
*247 FILLER_0_10_20
*248 FILLER_0_10_29
*249 FILLER_0_10_41
*250 FILLER_0_10_48
*251 FILLER_0_10_60
*252 FILLER_0_10_75
*253 FILLER_0_10_83
*254 FILLER_0_10_85
*255 FILLER_0_10_97
*256 FILLER_0_11_117
*257 FILLER_0_11_26
*258 FILLER_0_11_3
*259 FILLER_0_11_40
*260 FILLER_0_11_57
*261 FILLER_0_11_69
*262 FILLER_0_11_82
*263 FILLER_0_11_88
*264 FILLER_0_11_97
*265 FILLER_0_12_113
*266 FILLER_0_12_3
*267 FILLER_0_12_35
*268 FILLER_0_12_41
*269 FILLER_0_12_50
*270 FILLER_0_12_58
*271 FILLER_0_12_66
*272 FILLER_0_12_72
*273 FILLER_0_12_81
*274 FILLER_0_12_92
*275 FILLER_0_13_103
*276 FILLER_0_13_111
*277 FILLER_0_13_113
*278 FILLER_0_13_17
*279 FILLER_0_13_25
*280 FILLER_0_13_3
*281 FILLER_0_13_37
*282 FILLER_0_13_57
*283 FILLER_0_13_72
*284 FILLER_0_13_79
*285 FILLER_0_13_91
*286 FILLER_0_14_109
*287 FILLER_0_14_15
*288 FILLER_0_14_23
*289 FILLER_0_14_27
*290 FILLER_0_14_29
*291 FILLER_0_14_3
*292 FILLER_0_14_41
*293 FILLER_0_14_53
*294 FILLER_0_14_61
*295 FILLER_0_14_66
*296 FILLER_0_14_78
*297 FILLER_0_14_85
*298 FILLER_0_14_97
*299 FILLER_0_15_103
*300 FILLER_0_15_11
*301 FILLER_0_15_113
*302 FILLER_0_15_20
*303 FILLER_0_15_3
*304 FILLER_0_15_34
*305 FILLER_0_15_40
*306 FILLER_0_15_45
*307 FILLER_0_15_53
*308 FILLER_0_15_57
*309 FILLER_0_15_63
*310 FILLER_0_15_70
*311 FILLER_0_15_82
*312 FILLER_0_15_94
*313 FILLER_0_16_114
*314 FILLER_0_16_120
*315 FILLER_0_16_14
*316 FILLER_0_16_26
*317 FILLER_0_16_36
*318 FILLER_0_16_51
*319 FILLER_0_16_55
*320 FILLER_0_16_6
*321 FILLER_0_16_82
*322 FILLER_0_16_85
*323 FILLER_0_16_97
*324 FILLER_0_17_102
*325 FILLER_0_17_110
*326 FILLER_0_17_113
*327 FILLER_0_17_19
*328 FILLER_0_17_32
*329 FILLER_0_17_43
*330 FILLER_0_17_55
*331 FILLER_0_17_57
*332 FILLER_0_17_65
*333 FILLER_0_17_7
*334 FILLER_0_17_75
*335 FILLER_0_17_83
*336 FILLER_0_18_108
*337 FILLER_0_18_11
*338 FILLER_0_18_120
*339 FILLER_0_18_27
*340 FILLER_0_18_29
*341 FILLER_0_18_3
*342 FILLER_0_18_37
*343 FILLER_0_18_54
*344 FILLER_0_18_67
*345 FILLER_0_18_81
*346 FILLER_0_18_96
*347 FILLER_0_19_103
*348 FILLER_0_19_111
*349 FILLER_0_19_113
*350 FILLER_0_19_19
*351 FILLER_0_19_31
*352 FILLER_0_19_44
*353 FILLER_0_19_52
*354 FILLER_0_19_57
*355 FILLER_0_19_67
*356 FILLER_0_19_7
*357 FILLER_0_19_78
*358 FILLER_0_19_91
*359 FILLER_0_1_101
*360 FILLER_0_1_110
*361 FILLER_0_1_113
*362 FILLER_0_1_15
*363 FILLER_0_1_27
*364 FILLER_0_1_3
*365 FILLER_0_1_46
*366 FILLER_0_1_54
*367 FILLER_0_1_60
*368 FILLER_0_1_84
*369 FILLER_0_1_91
*370 FILLER_0_20_109
*371 FILLER_0_20_113
*372 FILLER_0_20_15
*373 FILLER_0_20_27
*374 FILLER_0_20_29
*375 FILLER_0_20_3
*376 FILLER_0_20_37
*377 FILLER_0_20_41
*378 FILLER_0_20_53
*379 FILLER_0_20_57
*380 FILLER_0_20_62
*381 FILLER_0_20_69
*382 FILLER_0_20_83
*383 FILLER_0_20_85
*384 FILLER_0_20_97
*385 FILLER_0_2_115
*386 FILLER_0_2_15
*387 FILLER_0_2_27
*388 FILLER_0_2_29
*389 FILLER_0_2_3
*390 FILLER_0_2_63
*391 FILLER_0_2_73
*392 FILLER_0_2_81
*393 FILLER_0_2_85
*394 FILLER_0_3_111
*395 FILLER_0_3_118
*396 FILLER_0_3_15
*397 FILLER_0_3_27
*398 FILLER_0_3_3
*399 FILLER_0_3_36
*400 FILLER_0_3_57
*401 FILLER_0_3_69
*402 FILLER_0_3_78
*403 FILLER_0_3_90
*404 FILLER_0_3_96
*405 FILLER_0_4_110
*406 FILLER_0_4_118
*407 FILLER_0_4_15
*408 FILLER_0_4_22
*409 FILLER_0_4_29
*410 FILLER_0_4_3
*411 FILLER_0_4_33
*412 FILLER_0_4_41
*413 FILLER_0_4_45
*414 FILLER_0_4_57
*415 FILLER_0_4_65
*416 FILLER_0_4_89
*417 FILLER_0_4_97
*418 FILLER_0_5_108
*419 FILLER_0_5_48
*420 FILLER_0_5_57
*421 FILLER_0_5_7
*422 FILLER_0_5_73
*423 FILLER_0_5_84
*424 FILLER_0_5_96
*425 FILLER_0_6_26
*426 FILLER_0_6_37
*427 FILLER_0_6_58
*428 FILLER_0_6_7
*429 FILLER_0_6_73
*430 FILLER_0_6_81
*431 FILLER_0_6_85
*432 FILLER_0_6_97
*433 FILLER_0_7_119
*434 FILLER_0_7_15
*435 FILLER_0_7_33
*436 FILLER_0_7_39
*437 FILLER_0_7_54
*438 FILLER_0_7_57
*439 FILLER_0_7_69
*440 FILLER_0_7_9
*441 FILLER_0_7_90
*442 FILLER_0_8_26
*443 FILLER_0_8_29
*444 FILLER_0_8_3
*445 FILLER_0_8_41
*446 FILLER_0_8_48
*447 FILLER_0_8_60
*448 FILLER_0_8_64
*449 FILLER_0_8_74
*450 FILLER_0_8_83
*451 FILLER_0_8_85
*452 FILLER_0_8_91
*453 FILLER_0_9_10
*454 FILLER_0_9_111
*455 FILLER_0_9_117
*456 FILLER_0_9_25
*457 FILLER_0_9_37
*458 FILLER_0_9_41
*459 FILLER_0_9_51
*460 FILLER_0_9_55
*461 FILLER_0_9_80
*462 FILLER_0_9_92
*463 PHY_EDGE_ROW_0_Left_21
*464 PHY_EDGE_ROW_0_Right_0
*465 PHY_EDGE_ROW_10_Left_31
*466 PHY_EDGE_ROW_10_Right_10
*467 PHY_EDGE_ROW_11_Left_32
*468 PHY_EDGE_ROW_11_Right_11
*469 PHY_EDGE_ROW_12_Left_33
*470 PHY_EDGE_ROW_12_Right_12
*471 PHY_EDGE_ROW_13_Left_34
*472 PHY_EDGE_ROW_13_Right_13
*473 PHY_EDGE_ROW_14_Left_35
*474 PHY_EDGE_ROW_14_Right_14
*475 PHY_EDGE_ROW_15_Left_36
*476 PHY_EDGE_ROW_15_Right_15
*477 PHY_EDGE_ROW_16_Left_37
*478 PHY_EDGE_ROW_16_Right_16
*479 PHY_EDGE_ROW_17_Left_38
*480 PHY_EDGE_ROW_17_Right_17
*481 PHY_EDGE_ROW_18_Left_39
*482 PHY_EDGE_ROW_18_Right_18
*483 PHY_EDGE_ROW_19_Left_40
*484 PHY_EDGE_ROW_19_Right_19
*485 PHY_EDGE_ROW_1_Left_22
*486 PHY_EDGE_ROW_1_Right_1
*487 PHY_EDGE_ROW_20_Left_41
*488 PHY_EDGE_ROW_20_Right_20
*489 PHY_EDGE_ROW_2_Left_23
*490 PHY_EDGE_ROW_2_Right_2
*491 PHY_EDGE_ROW_3_Left_24
*492 PHY_EDGE_ROW_3_Right_3
*493 PHY_EDGE_ROW_4_Left_25
*494 PHY_EDGE_ROW_4_Right_4
*495 PHY_EDGE_ROW_5_Left_26
*496 PHY_EDGE_ROW_5_Right_5
*497 PHY_EDGE_ROW_6_Left_27
*498 PHY_EDGE_ROW_6_Right_6
*499 PHY_EDGE_ROW_7_Left_28
*500 PHY_EDGE_ROW_7_Right_7
*501 PHY_EDGE_ROW_8_Left_29
*502 PHY_EDGE_ROW_8_Right_8
*503 PHY_EDGE_ROW_9_Left_30
*504 PHY_EDGE_ROW_9_Right_9
*505 TAP_TAPCELL_ROW_0_42
*506 TAP_TAPCELL_ROW_0_43
*507 TAP_TAPCELL_ROW_0_44
*508 TAP_TAPCELL_ROW_0_45
*509 TAP_TAPCELL_ROW_10_64
*510 TAP_TAPCELL_ROW_10_65
*511 TAP_TAPCELL_ROW_11_66
*512 TAP_TAPCELL_ROW_11_67
*513 TAP_TAPCELL_ROW_12_68
*514 TAP_TAPCELL_ROW_12_69
*515 TAP_TAPCELL_ROW_13_70
*516 TAP_TAPCELL_ROW_13_71
*517 TAP_TAPCELL_ROW_14_72
*518 TAP_TAPCELL_ROW_14_73
*519 TAP_TAPCELL_ROW_15_74
*520 TAP_TAPCELL_ROW_15_75
*521 TAP_TAPCELL_ROW_16_76
*522 TAP_TAPCELL_ROW_16_77
*523 TAP_TAPCELL_ROW_17_78
*524 TAP_TAPCELL_ROW_17_79
*525 TAP_TAPCELL_ROW_18_80
*526 TAP_TAPCELL_ROW_18_81
*527 TAP_TAPCELL_ROW_19_82
*528 TAP_TAPCELL_ROW_19_83
*529 TAP_TAPCELL_ROW_1_46
*530 TAP_TAPCELL_ROW_1_47
*531 TAP_TAPCELL_ROW_20_84
*532 TAP_TAPCELL_ROW_20_85
*533 TAP_TAPCELL_ROW_20_86
*534 TAP_TAPCELL_ROW_20_87
*535 TAP_TAPCELL_ROW_2_48
*536 TAP_TAPCELL_ROW_2_49
*537 TAP_TAPCELL_ROW_3_50
*538 TAP_TAPCELL_ROW_3_51
*539 TAP_TAPCELL_ROW_4_52
*540 TAP_TAPCELL_ROW_4_53
*541 TAP_TAPCELL_ROW_5_54
*542 TAP_TAPCELL_ROW_5_55
*543 TAP_TAPCELL_ROW_6_56
*544 TAP_TAPCELL_ROW_6_57
*545 TAP_TAPCELL_ROW_7_58
*546 TAP_TAPCELL_ROW_7_59
*547 TAP_TAPCELL_ROW_8_60
*548 TAP_TAPCELL_ROW_8_61
*549 TAP_TAPCELL_ROW_9_62
*550 TAP_TAPCELL_ROW_9_63
*551 _170_
*552 _171_
*553 _172_
*554 _173_
*555 _174_
*556 _175_
*557 _176_
*558 _177_
*559 _178_
*560 _179_
*561 _180_
*562 _181_
*563 _182_
*564 _183_
*565 _184_
*566 _185_
*567 _186_
*568 _187_
*569 _188_
*570 _189_
*571 _190_
*572 _191_
*573 _192_
*574 _193_
*575 _194_
*576 _195_
*577 _196_
*578 _197_
*579 _198_
*580 _199_
*581 _200_
*582 _201_
*583 _202_
*584 _203_
*585 _204_
*586 _205_
*587 _206_
*588 _207_
*589 _208_
*590 _209_
*591 _210_
*592 _211_
*593 _212_
*594 _213_
*595 _214_
*596 _215_
*597 _216_
*598 _217_
*599 _218_
*600 _219_
*601 _220_
*602 _221_
*603 _222_
*604 _223_
*605 _224_
*606 _225_
*607 _226_
*608 _227_
*609 _228_
*610 _229_
*611 _230_
*612 _231_
*613 _232_
*614 _233_
*615 _234_
*616 _235_
*617 _236_
*618 _237_
*619 _238_
*620 _239_
*621 _240_
*622 _241_
*623 _242_
*624 _243_
*625 _244_
*626 _245_
*627 _246_
*628 _247_
*629 _248_
*630 _249_
*631 _250_
*632 _251_
*633 _252_
*634 _253_
*635 _254_
*636 _255_
*637 _256_
*638 _257_
*639 _258_
*640 _259_
*641 _260_
*642 _261_
*643 _262_
*644 _263_
*645 _264_
*646 _265_
*647 _266_
*648 _267_
*649 _268_
*650 _269_
*651 _270_
*652 _271_
*653 _272_
*654 _273_
*655 _274_
*656 _275_
*657 _276_
*658 _277_
*659 _278_
*660 _279_
*661 _280_
*662 _281_
*663 _282_
*664 _283_
*665 _284_
*666 _285_
*667 _286_
*668 _287_
*669 _288_
*670 _289_
*671 _290_
*672 _291_
*673 _292_
*674 _293_
*675 _294_
*676 _295_
*677 _296_
*678 _297_
*679 _298_
*680 _299_
*681 _300_
*682 _301_
*683 _302_
*684 _303_
*685 _304_
*686 _305_
*687 _306_
*688 _307_
*689 _308_
*690 _309_
*691 _310_
*692 _311_
*693 _312_
*694 _313_
*695 _314_
*696 _315_
*697 _316_
*698 _317_
*699 _318_
*700 _319_
*701 _320_
*702 _321_
*703 _322_
*704 _323_
*705 _324_
*706 _325_
*707 _326_
*708 _327_
*709 _328_
*710 _329_
*711 _330_
*712 _331_
*713 _332_
*714 _333_
*715 _334_
*716 _335_
*717 _336_
*718 _337_
*719 _338_
*720 _339_
*721 _340_
*722 _341_
*723 _342_
*724 _343_
*725 _344_
*726 _345_
*727 _346_
*728 _347_
*729 _348_
*730 input1
*731 input10
*732 input11
*733 input12
*734 input13
*735 input14
*736 input15
*737 input16
*738 input17
*739 input18
*740 input19
*741 input2
*742 input3
*743 input4
*744 input5
*745 input6
*746 input7
*747 input8
*748 input9
*749 output20
*750 output21
*751 output22
*752 output23
*753 output24
*754 output25
*755 output26
*756 output27
*757 output28
*758 rebuffer1
*759 rebuffer2
*760 rebuffer3

*PORTS
A[0] I
A[1] I
A[2] I
A[3] I
A[4] I
A[5] I
A[6] I
A[7] I
B[0] I
B[1] I
B[2] I
B[3] I
B[4] I
B[5] I
B[6] I
B[7] I
opcode[0] I
opcode[1] I
opcode[2] I
out[0] O
out[1] O
out[2] O
out[3] O
out[4] O
out[5] O
out[6] O
out[7] O
out[8] O

*D_NET *1 0.000687714
*CONN
*P A[0] I
*I *730:A I *D sky130_fd_sc_hd__buf_2
*CAP
1 A[0] 0.000305441
2 *730:A 0.000305441
3 *730:A *731:A 0
4 *730:A *741:A 4.10623e-05
5 *730:A *201:14 3.5771e-05
*RES
1 A[0] *730:A 20.2479 
*END

*D_NET *2 0.000516829
*CONN
*P A[1] I
*I *741:A I *D sky130_fd_sc_hd__buf_2
*CAP
1 A[1] 0.000214444
2 *741:A 0.000214444
3 *741:A *731:A 4.68796e-05
4 *741:A *201:14 0
5 *730:A *741:A 4.10623e-05
*RES
1 A[1] *741:A 19.906 
*END

*D_NET *3 0.000869935
*CONN
*P A[2] I
*I *742:A I *D sky130_fd_sc_hd__buf_1
*CAP
1 A[2] 0.000431942
2 *742:A 0.000431942
3 *742:A *223:10 6.05161e-06
*RES
1 A[2] *742:A 22.1393 
*END

*D_NET *4 0.00087076
*CONN
*P A[3] I
*I *743:A I *D sky130_fd_sc_hd__buf_1
*CAP
1 A[3] 0.000419825
2 *743:A 0.000419825
3 *743:A *732:A 0
4 *743:A *226:10 3.11088e-05
*RES
1 A[3] *743:A 22.1393 
*END

*D_NET *5 0.000537156
*CONN
*P A[4] I
*I *744:A I *D sky130_fd_sc_hd__dlymetal6s2s_1
*CAP
1 A[4] 0.000151258
2 *744:A 0.000151258
3 *744:A out[4] 0.000148906
4 *744:A out[5] 8.57347e-05
*RES
1 A[4] *744:A 18.73 
*END

*D_NET *6 0.000988263
*CONN
*P A[5] I
*I *745:A I *D sky130_fd_sc_hd__buf_1
*CAP
1 A[5] 0.000491478
2 *745:A 0.000491478
3 *745:A *735:A 0
4 *745:A *228:10 5.30637e-06
*RES
1 A[5] *745:A 23.0679 
*END

*D_NET *7 0.001007
*CONN
*P A[6] I
*I *746:A I *D sky130_fd_sc_hd__buf_1
*CAP
1 A[6] 0.000475062
2 *746:A 0.000475062
3 *746:A out[6] 0
4 *746:A *735:A 0
5 *746:A *755:A 5.68722e-05
*RES
1 A[6] *746:A 22.9071 
*END

*D_NET *8 0.000924809
*CONN
*P A[7] I
*I *747:A I *D sky130_fd_sc_hd__clkbuf_2
*CAP
1 A[7] 0.000448756
2 *747:A 0.000448756
3 *747:A *736:A 0
4 *747:A *737:A 0
5 *747:A *230:10 2.72967e-05
*RES
1 A[7] *747:A 22.3536 
*END

*D_NET *9 0.000797336
*CONN
*P B[0] I
*I *748:A I *D sky130_fd_sc_hd__clkbuf_1
*CAP
1 B[0] 0.000363343
2 *748:A 0.000363343
3 *748:A out[0] 3.60635e-05
4 *748:A out[1] 3.45861e-05
*RES
1 B[0] *748:A 22.3161 
*END

*D_NET *10 0.000509998
*CONN
*P B[1] I
*I *731:A I *D sky130_fd_sc_hd__buf_1
*CAP
1 B[1] 0.000231559
2 *731:A 0.000231559
3 *730:A *731:A 0
4 *741:A *731:A 4.68796e-05
*RES
1 B[1] *731:A 18.73 
*END

*D_NET *11 0.000869935
*CONN
*P B[2] I
*I *732:A I *D sky130_fd_sc_hd__buf_1
*CAP
1 B[2] 0.000431942
2 *732:A 0.000431942
3 *732:A *733:A 0
4 *732:A *203:12 6.05161e-06
5 *743:A *732:A 0
*RES
1 B[2] *732:A 22.1393 
*END

*D_NET *12 0.00084014
*CONN
*P B[3] I
*I *733:A I *D sky130_fd_sc_hd__dlymetal6s2s_1
*CAP
1 B[3] 0.000413455
2 *733:A 0.000413455
3 *733:A *204:12 1.32293e-05
4 *732:A *733:A 0
*RES
1 B[3] *733:A 21.8357 
*END

*D_NET *13 0.000454014
*CONN
*P B[4] I
*I *734:A I *D sky130_fd_sc_hd__dlymetal6s2s_1
*CAP
1 B[4] 0.000188129
2 *734:A 0.000188129
3 *734:A out[4] 6.61451e-05
4 *734:A *43:16 1.16107e-05
*RES
1 B[4] *734:A 18.1229 
*END

*D_NET *14 0.000820052
*CONN
*P B[5] I
*I *735:A I *D sky130_fd_sc_hd__dlymetal6s2s_1
*CAP
1 B[5] 0.000410026
2 *735:A 0.000410026
3 *745:A *735:A 0
4 *746:A *735:A 0
*RES
1 B[5] *735:A 21.9607 
*END

*D_NET *15 0.00087896
*CONN
*P B[6] I
*I *736:A I *D sky130_fd_sc_hd__dlymetal6s2s_1
*CAP
1 B[6] 0.000411865
2 *736:A 0.000411865
3 *736:A out[6] 0
4 *736:A *207:10 5.52302e-05
5 *747:A *736:A 0
*RES
1 B[6] *736:A 21.8357 
*END

*D_NET *16 0.00105809
*CONN
*P B[7] I
*I *737:A I *D sky130_fd_sc_hd__dlymetal6s2s_1
*CAP
1 B[7] 0.000477664
2 *737:A 0.000477664
3 *737:A out[7] 0
4 *737:A *208:18 5.49544e-05
5 *737:A *230:10 4.7812e-05
6 *747:A *737:A 0
*RES
1 B[7] *737:A 23.0679 
*END

*D_NET *19 0.000721873
*CONN
*P opcode[0] I
*I *738:A I *D sky130_fd_sc_hd__clkbuf_2
*CAP
1 opcode[0] 0.000346552
2 *738:A 0.000346552
3 *738:A *739:A 2.87684e-05
*RES
1 opcode[0] *738:A 21.8017 
*END

*D_NET *20 0.000554816
*CONN
*P opcode[1] I
*I *739:A I *D sky130_fd_sc_hd__clkbuf_2
*CAP
1 opcode[1] 0.000247055
2 *739:A 0.000247055
3 *739:A out[0] 0
4 *739:A *740:A 3.19385e-05
5 *739:A *137:14 0
6 *738:A *739:A 2.87684e-05
*RES
1 opcode[1] *739:A 18.4985 
*END

*D_NET *21 0.000731755
*CONN
*P opcode[2] I
*I *740:A I *D sky130_fd_sc_hd__clkbuf_4
*CAP
1 opcode[2] 0.00033912
2 *740:A 0.00033912
3 *740:A out[0] 2.15768e-05
4 *739:A *740:A 3.19385e-05
*RES
1 opcode[2] *740:A 21.8017 
*END

*D_NET *22 0.00066512
*CONN
*P out[0] O
*I *749:X O *D sky130_fd_sc_hd__buf_2
*CAP
1 out[0] 0.000283874
2 *749:X 0.000283874
3 out[0] *749:A 3.9733e-05
4 out[0] *137:14 0
5 *739:A out[0] 0
6 *740:A out[0] 2.15768e-05
7 *748:A out[0] 3.60635e-05
*RES
1 *749:X out[0] 19.4092 
*END

*D_NET *23 0.00104184
*CONN
*P out[1] O
*I *750:X O *D sky130_fd_sc_hd__buf_2
*CAP
1 out[1] 0.000406166
2 *750:X 0.000406166
3 out[1] out[2] 9.78006e-05
4 out[1] *565:B1 9.71197e-05
5 *748:A out[1] 3.45861e-05
*RES
1 *750:X out[1] 21.2472 
*END

*D_NET *24 0.00104058
*CONN
*P out[2] O
*I *751:X O *D sky130_fd_sc_hd__buf_2
*CAP
1 out[2] 0.00036927
2 *751:X 0.00036927
3 out[2] *565:B1 0.000108839
4 out[2] *713:A_N 2.7883e-05
5 out[2] *142:50 6.75139e-05
6 out[1] out[2] 9.78006e-05
*RES
1 *751:X out[2] 22.1413 
*END

*D_NET *25 0.000557413
*CONN
*P out[3] O
*I *752:X O *D sky130_fd_sc_hd__buf_2
*CAP
1 out[3] 0.000255147
2 *752:X 0.000255147
3 out[3] *640:A2 4.71176e-05
*RES
1 *752:X out[3] 18.4985 
*END

*D_NET *26 0.00111433
*CONN
*P out[4] O
*I *753:X O *D sky130_fd_sc_hd__buf_2
*CAP
1 out[4] 0.000294018
2 *753:X 0.000294018
3 out[4] out[5] 0
4 out[4] *43:22 0.000311247
5 *734:A out[4] 6.61451e-05
6 *744:A out[4] 0.000148906
*RES
1 *753:X out[4] 21.8378 
*END

*D_NET *27 0.000896675
*CONN
*P out[5] O
*I *754:X O *D sky130_fd_sc_hd__buf_2
*CAP
1 out[5] 0.000396811
2 *754:X 0.000396811
3 out[5] *43:22 1.73182e-05
4 out[4] out[5] 0
5 *744:A out[5] 8.57347e-05
*RES
1 *754:X out[5] 19.0903 
*END

*D_NET *28 0.00108879
*CONN
*P out[6] O
*I *755:X O *D sky130_fd_sc_hd__buf_2
*CAP
1 out[6] 0.000537398
2 *755:X 0.000537398
3 out[6] *229:10 1.39987e-05
4 *736:A out[6] 0
5 *746:A out[6] 0
*RES
1 *755:X out[6] 22.8714 
*END

*D_NET *29 0.00141054
*CONN
*P out[7] O
*I *756:X O *D sky130_fd_sc_hd__buf_2
*CAP
1 out[7] 0.000618228
2 *756:X 0.000618228
3 out[7] out[8] 7.50473e-05
4 out[7] *757:A 0
5 out[7] *230:10 9.90367e-05
6 *737:A out[7] 0
*RES
1 *756:X out[7] 25.7286 
*END

*D_NET *30 0.00100681
*CONN
*P out[8] O
*I *757:X O *D sky130_fd_sc_hd__buf_4
*CAP
1 out[8] 0.000465879
2 *757:X 0.000465879
3 out[7] out[8] 7.50473e-05
*RES
1 *757:X out[8] 22.8893 
*END

*D_NET *31 0.000318435
*CONN
*I *623:B1 I *D sky130_fd_sc_hd__a31o_1
*I *622:X O *D sky130_fd_sc_hd__and2b_1
*CAP
1 *623:B1 9.81866e-05
2 *622:X 9.81866e-05
3 *623:B1 *201:113 0.000122062
*RES
1 *622:X *623:B1 20.7786 
*END

*D_NET *32 0.00255489
*CONN
*I *659:B I *D sky130_fd_sc_hd__nand2_1
*I *624:B I *D sky130_fd_sc_hd__xor2_1
*I *623:X O *D sky130_fd_sc_hd__a31o_1
*CAP
1 *659:B 0.000127894
2 *624:B 0
3 *623:X 0.000672739
4 *32:6 0.000800633
5 *659:B *659:A 0.000129388
6 *659:B *33:10 5.49995e-05
7 *32:6 *591:A 4.51148e-05
8 *32:6 *591:B 5.66971e-05
9 *32:6 *620:B 5.49544e-05
10 *32:6 *651:A 0.000115704
11 *32:6 *656:A 3.4689e-05
12 *32:6 *656:C 1.79251e-05
13 *32:6 *59:6 0.000138753
14 *32:6 *60:6 7.62237e-05
15 *32:6 *64:12 1.84776e-05
16 *32:6 *194:14 9.56348e-05
17 *32:6 *198:8 0.000115065
*RES
1 *623:X *32:6 24.2107 
2 *32:6 *624:B 9.3 
3 *32:6 *659:B 12.3179 
*END

*D_NET *33 0.00173626
*CONN
*I *660:A2 I *D sky130_fd_sc_hd__a21boi_1
*I *625:B I *D sky130_fd_sc_hd__xor2_1
*I *624:X O *D sky130_fd_sc_hd__xor2_1
*CAP
1 *660:A2 3.7506e-05
2 *625:B 9.79209e-05
3 *624:X 0.000348045
4 *33:10 0.000483472
5 *625:B *603:A1 6.05161e-06
6 *625:B *612:A1 3.34295e-05
7 *625:B *660:A1 0.000129868
8 *625:B *69:18 0.00014592
9 *625:B *180:19 5.49544e-05
10 *660:A2 *660:A1 9.83442e-05
11 *660:A2 *661:B 0.000141734
12 *33:10 *660:B1_N 0
13 *33:10 *661:A 3.34687e-05
14 *33:10 *69:18 7.05447e-05
15 *33:10 *179:10 0
16 *659:B *33:10 5.49995e-05
*RES
1 *624:X *33:10 19.925 
2 *33:10 *625:B 16.8893 
3 *33:10 *660:A2 15.1571 
*END

*D_NET *34 0.00234845
*CONN
*I *640:A2 I *D sky130_fd_sc_hd__a21oi_1
*I *625:X O *D sky130_fd_sc_hd__xor2_1
*CAP
1 *640:A2 0.00109227
2 *625:X 0.00109227
3 *640:A2 *631:B 0.000116791
4 out[3] *640:A2 4.71176e-05
*RES
1 *625:X *640:A2 45.3321 
*END

*D_NET *35 0.000568726
*CONN
*I *627:A I *D sky130_fd_sc_hd__xnor2_1
*I *626:X O *D sky130_fd_sc_hd__o31a_1
*CAP
1 *627:A 0.000170418
2 *626:X 0.000170418
3 *627:A *609:B1 7.27183e-05
4 *627:A *638:A3 5.20669e-05
5 *627:A *642:A2 5.65955e-05
6 *627:A *154:6 4.76637e-06
7 *627:A *205:49 4.17433e-05
*RES
1 *626:X *627:A 31.0286 
*END

*D_NET *36 0.00143856
*CONN
*I *628:A I *D sky130_fd_sc_hd__and2_4
*I *629:B I *D sky130_fd_sc_hd__nor2_1
*I *627:Y O *D sky130_fd_sc_hd__xnor2_1
*CAP
1 *628:A 1.35222e-05
2 *629:B 0
3 *627:Y 0.000407408
4 *36:16 0.00042093
5 *628:A *639:B1 2.12647e-05
6 *628:A *227:35 5.49995e-05
7 *36:16 *639:B1 0.000141941
8 *36:16 *205:8 0.000140243
9 *36:16 *205:12 2.90501e-05
10 *36:16 *205:49 8.78673e-05
11 *36:16 *227:29 1.32693e-05
12 *36:16 *227:35 5.13692e-05
13 *36:16 *227:37 5.66971e-05
*RES
1 *627:Y *36:16 25.2464 
2 *36:16 *629:B 9.3 
3 *36:16 *628:A 9.83571 
*END

*D_NET *37 0.00469483
*CONN
*I *630:A I *D sky130_fd_sc_hd__nor2_1
*I *648:A1 I *D sky130_fd_sc_hd__o21ai_1
*I *649:A1 I *D sky130_fd_sc_hd__o31a_1
*I *674:A1 I *D sky130_fd_sc_hd__o311ai_4
*I *672:A1 I *D sky130_fd_sc_hd__o31a_1
*I *628:X O *D sky130_fd_sc_hd__and2_4
*CAP
1 *630:A 0.00014928
2 *648:A1 8.87349e-05
3 *649:A1 0.000119587
4 *674:A1 0.000295994
5 *672:A1 6.7754e-05
6 *628:X 5.27217e-05
7 *37:25 0.000489747
8 *37:14 0.00022959
9 *37:10 0.000355048
10 *37:8 0.000380646
11 *630:A *630:B 0.000332504
12 *630:A *39:12 0.000272147
13 *648:A1 *666:B1 4.1219e-05
14 *648:A1 *43:30 0.000228826
15 *649:A1 *649:A2 1.485e-05
16 *649:A1 *649:A3 1.69748e-05
17 *649:A1 *649:B1 4.25684e-05
18 *672:A1 *672:B1 5.44984e-05
19 *672:A1 *134:74 1.32293e-05
20 *674:A1 *648:B1 2.97937e-05
21 *674:A1 *649:B1 0.000244121
22 *674:A1 *674:A2 7.1959e-05
23 *674:A1 *55:8 0.000195126
24 *37:8 *39:12 0.000126958
25 *37:8 *69:18 1.18064e-05
26 *37:8 *134:96 7.31026e-05
27 *37:10 *665:B1 0.00012401
28 *37:10 *666:B2 6.98669e-05
29 *37:10 *43:30 2.28343e-05
30 *37:10 *69:18 2.16719e-05
31 *37:10 *134:85 0.000172111
32 *37:10 *134:96 2.84494e-05
33 *37:14 *43:30 0.000173021
34 *37:25 *649:A2 6.92966e-06
35 *37:25 *649:B1 5.33005e-05
36 *37:25 *672:B1 2.38501e-05
*RES
1 *628:X *37:8 15.7464 
2 *37:8 *37:10 5.28571 
3 *37:10 *37:14 6.75 
4 *37:14 *672:A1 10.675 
5 *37:14 *37:25 1.35714 
6 *37:25 *674:A1 25.1929 
7 *37:25 *649:A1 11.6214 
8 *37:10 *648:A1 16.4071 
9 *37:8 *630:A 18.3536 
*END

*D_NET *38 0.00136839
*CONN
*I *630:B I *D sky130_fd_sc_hd__nor2_1
*I *629:Y O *D sky130_fd_sc_hd__nor2_1
*CAP
1 *630:B 0.000305552
2 *629:Y 0.000305552
3 *630:B *636:A2 0
4 *630:B *665:A1 8.70594e-05
5 *630:B *665:C1 9.71197e-05
6 *630:B *666:B2 4.79957e-05
7 *630:B *160:62 0.000128161
8 *630:B *182:69 6.4443e-05
9 *630:A *630:B 0.000332504
*RES
1 *629:Y *630:B 35.5464 
*END

*D_NET *39 0.00225338
*CONN
*I *634:B1 I *D sky130_fd_sc_hd__o211a_4
*I *633:A I *D sky130_fd_sc_hd__or2_1
*I *630:Y O *D sky130_fd_sc_hd__nor2_1
*CAP
1 *634:B1 1.76505e-05
2 *633:A 0.000146052
3 *630:Y 0.00032974
4 *39:12 0.000493443
5 *633:A *43:16 0.00022197
6 *633:A *205:8 0.000183598
7 *634:B1 *43:16 5.33005e-05
8 *634:B1 *205:8 1.98839e-05
9 *39:12 *614:A2 5.44356e-05
10 *39:12 *69:18 0.000327826
11 *39:12 *134:96 6.37181e-06
12 *630:A *39:12 0.000272147
13 *37:8 *39:12 0.000126958
*RES
1 *630:Y *39:12 25.2643 
2 *39:12 *633:A 13.1393 
3 *39:12 *634:B1 9.83571 
*END

*D_NET *40 0.00153083
*CONN
*I *632:A2 I *D sky130_fd_sc_hd__o21a_1
*I *634:A2 I *D sky130_fd_sc_hd__o211a_4
*I *631:X O *D sky130_fd_sc_hd__or2_1
*CAP
1 *632:A2 4.12389e-05
2 *634:A2 0.000135128
3 *631:X 5.3446e-05
4 *40:8 0.000229813
5 *632:A2 *632:A1 5.49489e-05
6 *632:A2 *641:B1 4.35482e-05
7 *632:A2 *182:81 7.19508e-05
8 *634:A2 *634:A1 0.000223146
9 *634:A2 *640:B1 0.000192426
10 *634:A2 *43:16 0.000182592
11 *634:A2 *152:25 3.12359e-05
12 *634:A2 *205:8 7.09928e-05
13 *40:8 *603:B1 7.70035e-05
14 *40:8 *640:B1 9.11048e-06
15 *40:8 *152:25 0.000114248
*RES
1 *631:X *40:8 15.4429 
2 *40:8 *634:A2 18.55 
3 *40:8 *632:A2 15.1571 
*END

*D_NET *41 0.00110569
*CONN
*I *633:B I *D sky130_fd_sc_hd__or2_1
*I *632:X O *D sky130_fd_sc_hd__o21a_1
*CAP
1 *633:B 0.000375761
2 *632:X 0.000375761
3 *633:B *43:16 5.66943e-05
4 *633:B *154:6 7.4057e-06
5 *633:B *156:17 1.58163e-05
6 *633:B *160:87 0.000150043
7 *633:B *182:81 0.000124211
*RES
1 *632:X *633:B 33.3679 
*END

*D_NET *42 0.00171711
*CONN
*I *639:A1 I *D sky130_fd_sc_hd__a21o_1
*I *633:X O *D sky130_fd_sc_hd__or2_1
*CAP
1 *639:A1 0.000516895
2 *633:X 0.000516895
3 *639:A1 *641:B1 3.54498e-05
4 *639:A1 *205:8 0.000647875
*RES
1 *633:X *639:A1 34.9214 
*END

*D_NET *43 0.00647606
*CONN
*I *635:A_N I *D sky130_fd_sc_hd__and2b_1
*I *648:A2 I *D sky130_fd_sc_hd__o21ai_1
*I *672:A2 I *D sky130_fd_sc_hd__o31a_1
*I *649:A2 I *D sky130_fd_sc_hd__o31a_1
*I *674:A3 I *D sky130_fd_sc_hd__o311ai_4
*I *634:X O *D sky130_fd_sc_hd__o211a_4
*CAP
1 *635:A_N 0
2 *648:A2 0
3 *672:A2 0
4 *649:A2 0.000275781
5 *674:A3 0.0001071
6 *634:X 0.000674859
7 *43:32 0.000415707
8 *43:30 0.000299417
9 *43:22 0.000987
10 *43:16 0.00139527
11 *649:A2 *649:A3 5.49544e-05
12 *649:A2 *649:B1 2.42516e-05
13 *649:A2 *672:B1 4.84159e-05
14 *674:A3 *647:B 8.02652e-05
15 *674:A3 *672:A3 6.67257e-05
16 *674:A3 *673:A 7.70717e-05
17 *674:A3 *674:A2 5.50052e-05
18 *674:A3 *54:6 1.21258e-05
19 *674:A3 *78:10 5.54817e-06
20 *43:16 *182:81 5.51649e-05
21 *43:16 *205:8 0.00014588
22 *43:22 *648:B1 4.60235e-05
23 *43:22 *666:B1 4.3516e-05
24 *43:22 *227:18 0
25 *43:30 *648:B1 1.24368e-05
26 *43:30 *649:B1 3.67279e-06
27 *43:30 *666:A2_N 2.51343e-06
28 *43:30 *666:B1 9.76435e-06
29 *43:30 *673:A 1.12578e-05
30 *43:30 *134:74 7.58841e-05
31 *43:30 *134:85 0.000104036
32 *43:32 *649:B1 1.50223e-05
33 *43:32 *672:A3 3.29297e-05
34 *43:32 *673:A 3.72685e-05
35 out[4] *43:22 0.000311247
36 out[5] *43:22 1.73182e-05
37 *633:A *43:16 0.00022197
38 *633:B *43:16 5.66943e-05
39 *634:A2 *43:16 0.000182592
40 *634:B1 *43:16 5.33005e-05
41 *648:A1 *43:30 0.000228826
42 *649:A1 *649:A2 1.485e-05
43 *734:A *43:16 1.16107e-05
44 *37:10 *43:30 2.28343e-05
45 *37:14 *43:30 0.000173021
46 *37:25 *649:A2 6.92966e-06
*RES
1 *634:X *43:16 34.8357 
2 *43:16 *43:22 16.25 
3 *43:22 *43:30 10.7857 
4 *43:30 *43:32 1.03571 
5 *43:32 *674:A3 16.6929 
6 *43:32 *649:A2 17.2286 
7 *43:30 *672:A2 13.8 
8 *43:22 *648:A2 9.3 
9 *43:16 *635:A_N 13.8 
*END

*D_NET *44 0.00058629
*CONN
*I *639:A2 I *D sky130_fd_sc_hd__a21o_1
*I *635:X O *D sky130_fd_sc_hd__and2b_1
*CAP
1 *639:A2 0.000100768
2 *635:X 0.000100768
3 *639:A2 *639:B1 8.16102e-05
4 *639:A2 *640:B1 3.67252e-05
5 *639:A2 *753:A 1.98839e-05
6 *639:A2 *227:18 0.000246534
*RES
1 *635:X *639:A2 22.0286 
*END

*D_NET *45 0.000822913
*CONN
*I *637:B2 I *D sky130_fd_sc_hd__o22a_1
*I *636:Y O *D sky130_fd_sc_hd__a21oi_1
*CAP
1 *637:B2 0.00030569
2 *636:Y 0.00030569
3 *637:B2 *636:A2 0.000189359
4 *637:B2 *205:12 2.21728e-05
*RES
1 *636:Y *637:B2 32.1357 
*END

*D_NET *46 0.000870665
*CONN
*I *638:B1 I *D sky130_fd_sc_hd__a311o_1
*I *637:X O *D sky130_fd_sc_hd__o22a_1
*CAP
1 *638:B1 0.000268447
2 *637:X 0.000268447
3 *638:B1 *637:B1 5.77471e-06
4 *638:B1 *638:A2 0.000327996
*RES
1 *637:X *638:B1 22.6357 
*END

*D_NET *47 0.00246066
*CONN
*I *639:B1 I *D sky130_fd_sc_hd__a21o_1
*I *638:X O *D sky130_fd_sc_hd__a311o_1
*CAP
1 *639:B1 0.000838748
2 *638:X 0.000838748
3 *639:B1 *637:B1 7.57394e-05
4 *639:B1 *227:18 4.21531e-05
5 *639:B1 *227:29 0.000311496
6 *639:B1 *227:35 9.86486e-06
7 *639:B1 *227:37 4.77002e-05
8 *639:B1 *227:41 5.13976e-05
9 *628:A *639:B1 2.12647e-05
10 *639:A2 *639:B1 8.16102e-05
11 *36:16 *639:B1 0.000141941
*RES
1 *638:X *639:B1 30.7964 
*END

*D_NET *48 0.000848267
*CONN
*I *640:B1 I *D sky130_fd_sc_hd__a21oi_1
*I *639:X O *D sky130_fd_sc_hd__a21o_1
*CAP
1 *640:B1 0.000299986
2 *639:X 0.000299986
3 *640:B1 *634:A1 1.0033e-05
4 *634:A2 *640:B1 0.000192426
5 *639:A2 *640:B1 3.67252e-05
6 *40:8 *640:B1 9.11048e-06
*RES
1 *639:X *640:B1 32.9214 
*END

*D_NET *49 0.00126861
*CONN
*I *641:B1 I *D sky130_fd_sc_hd__a21oi_1
*I *640:Y O *D sky130_fd_sc_hd__a21oi_1
*CAP
1 *641:B1 0.000415466
2 *640:Y 0.000415466
3 *641:B1 *632:A1 5.49489e-05
4 *641:B1 *634:C1 0.000184535
5 *641:B1 *69:18 6.32191e-05
6 *641:B1 *156:17 2.84109e-05
7 *641:B1 *182:81 2.7569e-05
8 *632:A2 *641:B1 4.35482e-05
9 *639:A1 *641:B1 3.54498e-05
*RES
1 *640:Y *641:B1 35.6357 
*END

*D_NET *50 0.00336712
*CONN
*I *643:B I *D sky130_fd_sc_hd__xor2_1
*I *667:B1 I *D sky130_fd_sc_hd__a21o_1
*I *642:X O *D sky130_fd_sc_hd__o41a_1
*CAP
1 *643:B 8.37706e-05
2 *667:B1 0
3 *642:X 0.000767252
4 *50:12 0.000851023
5 *643:B *667:A1 4.60309e-05
6 *643:B *667:A2 7.83485e-05
7 *643:B *81:25 0.000267092
8 *50:12 *611:C1 7.58841e-05
9 *50:12 *638:A3 0.000125202
10 *50:12 *683:A2 0
11 *50:12 *683:B1 6.42338e-05
12 *50:12 *684:A2 0.000338338
13 *50:12 *684:B1 6.1684e-05
14 *50:12 *685:B1 0.000196786
15 *50:12 *685:B2 0.000119467
16 *50:12 *182:59 0.000200505
17 *50:12 *184:38 5.49995e-05
18 *50:12 *184:46 3.65037e-05
*RES
1 *642:X *50:12 34.1571 
2 *50:12 *667:B1 9.3 
3 *50:12 *643:B 12.3179 
*END

*D_NET *51 0.00174692
*CONN
*I *644:B_N I *D sky130_fd_sc_hd__or2b_2
*I *646:A_N I *D sky130_fd_sc_hd__and2b_1
*I *643:X O *D sky130_fd_sc_hd__xor2_1
*CAP
1 *644:B_N 0.000205801
2 *646:A_N 0
3 *643:X 5.60711e-05
4 *51:6 0.000261872
5 *644:B_N *646:B 9.84673e-05
6 *644:B_N *81:8 9.14454e-05
7 *644:B_N *81:25 5.33005e-05
8 *644:B_N *160:62 0.000172894
9 *644:B_N *206:8 0
10 *644:B_N *206:12 8.17274e-05
11 *644:B_N *228:23 1.11093e-05
12 *51:6 *81:25 0.000357115
13 *51:6 *206:12 0.000357115
*RES
1 *643:X *51:6 12.7107 