* NGSPICE file created from cpu_lab6.ext - technology: sky130A

* Black-box entry subcircuit for sky130_fd_sc_hd__fill_1 abstract view
.subckt sky130_fd_sc_hd__fill_1 VGND VNB VPB VPWR
.ends

* Black-box entry subcircuit for sky130_ef_sc_hd__decap_12 abstract view
.subckt sky130_ef_sc_hd__decap_12 VPWR VGND VPB VNB
.ends

* Black-box entry subcircuit for sky130_fd_sc_hd__tapvpwrvgnd_1 abstract view
.subckt sky130_fd_sc_hd__tapvpwrvgnd_1 VGND VPWR
.ends

* Black-box entry subcircuit for sky130_fd_sc_hd__decap_4 abstract view
.subckt sky130_fd_sc_hd__decap_4 VGND VNB VPB VPWR
.ends

* Black-box entry subcircuit for sky130_fd_sc_hd__decap_3 abstract view
.subckt sky130_fd_sc_hd__decap_3 VGND VNB VPB VPWR
.ends

* Black-box entry subcircuit for sky130_fd_sc_hd__decap_6 abstract view
.subckt sky130_fd_sc_hd__decap_6 VGND VNB VPB VPWR
.ends

* Black-box entry subcircuit for sky130_fd_sc_hd__decap_8 abstract view
.subckt sky130_fd_sc_hd__decap_8 VGND VNB VPB VPWR
.ends

* Black-box entry subcircuit for sky130_fd_sc_hd__conb_1 abstract view
.subckt sky130_fd_sc_hd__conb_1 VGND VNB VPB VPWR HI LO
.ends

* Black-box entry subcircuit for sky130_fd_sc_hd__fill_2 abstract view
.subckt sky130_fd_sc_hd__fill_2 VGND VNB VPB VPWR
.ends

.subckt cpu_lab6 VGND VPWR an[0] an[1] an[2] an[3] clk control reset seg[0] seg[1]
+ seg[2] seg[3] seg[4] seg[5] seg[6]
XFILLER_0_27_93 VGND VGND VPWR VPWR sky130_fd_sc_hd__fill_1
XFILLER_0_7_81 VPWR VGND VPWR VGND sky130_ef_sc_hd__decap_12
XTAP_TAPCELL_ROW_15_106 VGND VPWR sky130_fd_sc_hd__tapvpwrvgnd_1
XFILLER_0_3_39 VPWR VGND VPWR VGND sky130_ef_sc_hd__decap_12
XFILLER_0_13_51 VGND VGND VPWR VPWR sky130_fd_sc_hd__decap_4
XTAP_TAPCELL_ROW_20_120 VGND VPWR sky130_fd_sc_hd__tapvpwrvgnd_1
XFILLER_0_18_29 VPWR VGND VPWR VGND sky130_ef_sc_hd__decap_12
XFILLER_0_24_83 VGND VGND VPWR VPWR sky130_fd_sc_hd__fill_1
XFILLER_0_0_29 VPWR VGND VPWR VGND sky130_ef_sc_hd__decap_12
XFILLER_0_9_27 VPWR VGND VPWR VGND sky130_ef_sc_hd__decap_12
XFILLER_0_10_41 VPWR VGND VPWR VGND sky130_ef_sc_hd__decap_12
XFILLER_0_10_85 VPWR VGND VPWR VGND sky130_ef_sc_hd__decap_12
XFILLER_0_19_169 VPWR VGND VPWR VGND sky130_ef_sc_hd__decap_12
XFILLER_0_19_125 VPWR VGND VPWR VGND sky130_ef_sc_hd__decap_12
XPHY_EDGE_ROW_8_Left_36 VGND VGND VPWR VPWR sky130_fd_sc_hd__decap_3
XFILLER_0_21_51 VGND VGND VPWR VPWR sky130_fd_sc_hd__decap_4
XFILLER_0_16_139 VGND VGND VPWR VPWR sky130_fd_sc_hd__fill_1
XFILLER_0_26_29 VPWR VGND VPWR VGND sky130_ef_sc_hd__decap_12
XFILLER_0_22_109 VPWR VGND VPWR VGND sky130_ef_sc_hd__decap_12
XFILLER_0_15_161 VGND VGND VPWR VPWR sky130_fd_sc_hd__decap_6
XFILLER_0_12_153 VPWR VGND VPWR VGND sky130_ef_sc_hd__decap_12
XTAP_TAPCELL_ROW_18_115 VGND VPWR sky130_fd_sc_hd__tapvpwrvgnd_1
XFILLER_0_7_93 VPWR VGND VPWR VGND sky130_ef_sc_hd__decap_12
XPHY_EDGE_ROW_21_Left_49 VGND VGND VPWR VPWR sky130_fd_sc_hd__decap_3
XFILLER_0_2_109 VPWR VGND VPWR VGND sky130_ef_sc_hd__decap_12
XTAP_TAPCELL_ROW_20_121 VGND VPWR sky130_fd_sc_hd__tapvpwrvgnd_1
XPHY_EDGE_ROW_21_Right_21 VGND VGND VPWR VPWR sky130_fd_sc_hd__decap_3
XFILLER_0_4_83 VGND VGND VPWR VPWR sky130_fd_sc_hd__fill_1
XPHY_EDGE_ROW_12_Right_12 VGND VGND VPWR VPWR sky130_fd_sc_hd__decap_3
XFILLER_0_9_39 VPWR VGND VPWR VGND sky130_ef_sc_hd__decap_12
XFILLER_0_27_181 VGND VGND VPWR VPWR sky130_fd_sc_hd__decap_8
XPHY_EDGE_ROW_24_Left_52 VGND VGND VPWR VPWR sky130_fd_sc_hd__decap_3
XFILLER_0_19_137 VPWR VGND VPWR VGND sky130_ef_sc_hd__decap_12
XFILLER_0_19_51 VGND VGND VPWR VPWR sky130_fd_sc_hd__decap_4
XFILLER_0_10_53 VPWR VGND VPWR VGND sky130_ef_sc_hd__decap_12
XFILLER_0_10_97 VPWR VGND VPWR VGND sky130_ef_sc_hd__decap_12
XFILLER_0_27_3 VPWR VGND VPWR VGND sky130_ef_sc_hd__decap_12
XFILLER_0_1_51 VGND VGND VPWR VPWR sky130_fd_sc_hd__decap_4
XFILLER_0_16_85 VPWR VGND VPWR VGND sky130_ef_sc_hd__decap_12
XFILLER_0_16_41 VPWR VGND VPWR VGND sky130_ef_sc_hd__decap_12
XFILLER_0_6_29 VPWR VGND VPWR VGND sky130_ef_sc_hd__decap_12
XPHY_EDGE_ROW_6_Right_6 VGND VGND VPWR VPWR sky130_fd_sc_hd__decap_3
XFILLER_0_12_121 VPWR VGND VPWR VGND sky130_ef_sc_hd__decap_12
XFILLER_0_12_165 VPWR VGND VPWR VGND sky130_ef_sc_hd__decap_12
XFILLER_0_7_181 VGND VGND VPWR VPWR sky130_fd_sc_hd__decap_8
XFILLER_0_11_6 VPWR VGND VPWR VGND sky130_ef_sc_hd__decap_12
XTAP_TAPCELL_ROW_23_130 VGND VPWR sky130_fd_sc_hd__tapvpwrvgnd_1
XFILLER_0_24_85 VPWR VGND VPWR VGND sky130_ef_sc_hd__decap_12
XFILLER_0_24_41 VPWR VGND VPWR VGND sky130_ef_sc_hd__decap_12
XFILLER_0_19_149 VPWR VGND VPWR VGND sky130_ef_sc_hd__decap_12
XFILLER_0_19_105 VGND VGND VPWR VPWR sky130_fd_sc_hd__decap_6
XFILLER_0_10_65 VPWR VGND VPWR VGND sky130_ef_sc_hd__decap_12
XFILLER_0_24_141 VPWR VGND VPWR VGND sky130_ef_sc_hd__decap_12
XFILLER_0_21_111 VGND VGND VPWR VPWR sky130_fd_sc_hd__fill_1
XFILLER_0_16_97 VPWR VGND VPWR VGND sky130_ef_sc_hd__decap_12
XFILLER_0_16_53 VPWR VGND VPWR VGND sky130_ef_sc_hd__decap_12
XFILLER_0_12_133 VGND VGND VPWR VPWR sky130_fd_sc_hd__decap_6
XFILLER_0_12_177 VPWR VGND VPWR VGND sky130_ef_sc_hd__decap_12
XFILLER_0_9_3 VPWR VGND VPWR VGND sky130_ef_sc_hd__decap_12
XFILLER_0_27_85 VGND VGND VPWR VPWR sky130_fd_sc_hd__decap_8
XFILLER_0_27_41 VPWR VGND VPWR VGND sky130_ef_sc_hd__decap_12
XFILLER_0_4_141 VPWR VGND VPWR VGND sky130_ef_sc_hd__decap_12
XFILLER_0_7_51 VGND VGND VPWR VPWR sky130_fd_sc_hd__decap_4
XFILLER_0_1_111 VGND VGND VPWR VPWR sky130_fd_sc_hd__fill_1
XFILLER_0_24_97 VPWR VGND VPWR VGND sky130_ef_sc_hd__decap_12
XFILLER_0_24_53 VPWR VGND VPWR VGND sky130_ef_sc_hd__decap_12
XFILLER_0_4_41 VPWR VGND VPWR VGND sky130_ef_sc_hd__decap_12
XFILLER_0_4_85 VPWR VGND VPWR VGND sky130_ef_sc_hd__decap_12
XFILLER_0_10_77 VGND VGND VPWR VPWR sky130_fd_sc_hd__decap_6
XFILLER_0_16_109 VPWR VGND VPWR VGND sky130_ef_sc_hd__decap_12
XFILLER_0_24_153 VPWR VGND VPWR VGND sky130_ef_sc_hd__decap_12
XFILLER_0_21_189 VGND VGND VPWR VPWR sky130_fd_sc_hd__fill_1
XFILLER_0_21_167 VGND VGND VPWR VPWR sky130_fd_sc_hd__fill_1
XTAP_TAPCELL_ROW_10_90 VGND VPWR sky130_fd_sc_hd__tapvpwrvgnd_1
XFILLER_0_16_65 VPWR VGND VPWR VGND sky130_ef_sc_hd__decap_12
XFILLER_0_8_139 VGND VGND VPWR VPWR sky130_fd_sc_hd__fill_1
XFILLER_0_12_189 VGND VGND VPWR VPWR sky130_fd_sc_hd__fill_1
XFILLER_0_7_161 VGND VGND VPWR VPWR sky130_fd_sc_hd__decap_6
XFILLER_0_27_97 VGND VGND VPWR VPWR sky130_fd_sc_hd__decap_4
XFILLER_0_27_53 VGND VGND VPWR VPWR sky130_fd_sc_hd__decap_3
XFILLER_0_4_153 VPWR VGND VPWR VGND sky130_ef_sc_hd__decap_12
XFILLER_0_13_55 VGND VGND VPWR VPWR sky130_fd_sc_hd__fill_1
XFILLER_0_1_189 VGND VGND VPWR VPWR sky130_fd_sc_hd__fill_1
XFILLER_0_1_167 VGND VGND VPWR VPWR sky130_fd_sc_hd__fill_1
XTAP_TAPCELL_ROW_3_70 VGND VPWR sky130_fd_sc_hd__tapvpwrvgnd_1
XFILLER_0_24_65 VPWR VGND VPWR VGND sky130_ef_sc_hd__decap_12
XFILLER_0_4_53 VPWR VGND VPWR VGND sky130_ef_sc_hd__decap_12
XFILLER_0_4_97 VPWR VGND VPWR VGND sky130_ef_sc_hd__decap_12
XTAP_TAPCELL_ROW_0_60 VGND VPWR sky130_fd_sc_hd__tapvpwrvgnd_1
XFILLER_0_24_165 VPWR VGND VPWR VGND sky130_ef_sc_hd__decap_12
XFILLER_0_24_121 VPWR VGND VPWR VGND sky130_ef_sc_hd__decap_12
XFILLER_0_21_55 VGND VGND VPWR VPWR sky130_fd_sc_hd__fill_1
XTAP_TAPCELL_ROW_10_91 VGND VPWR sky130_fd_sc_hd__tapvpwrvgnd_1
XFILLER_0_21_113 VPWR VGND VPWR VGND sky130_ef_sc_hd__decap_12
XFILLER_0_16_77 VGND VGND VPWR VPWR sky130_fd_sc_hd__decap_6
XFILLER_0_25_3 VPWR VGND VPWR VGND sky130_ef_sc_hd__decap_12
XPHY_EDGE_ROW_19_Right_19 VGND VGND VPWR VPWR sky130_fd_sc_hd__decap_3
XPHY_EDGE_ROW_15_Left_43 VGND VGND VPWR VPWR sky130_fd_sc_hd__decap_3
XFILLER_0_4_121 VPWR VGND VPWR VGND sky130_ef_sc_hd__decap_12
XFILLER_0_4_165 VPWR VGND VPWR VGND sky130_ef_sc_hd__decap_12
XFILLER_0_1_113 VPWR VGND VPWR VGND sky130_ef_sc_hd__decap_12
XPHY_EDGE_ROW_0_Left_28 VGND VGND VPWR VPWR sky130_fd_sc_hd__decap_3
XFILLER_0_24_77 VGND VGND VPWR VPWR sky130_fd_sc_hd__decap_6
XFILLER_0_4_65 VPWR VGND VPWR VGND sky130_ef_sc_hd__decap_12
XFILLER_0_27_141 VPWR VGND VPWR VGND sky130_ef_sc_hd__decap_12
XFILLER_0_19_55 VGND VGND VPWR VPWR sky130_fd_sc_hd__fill_1
XTAP_TAPCELL_ROW_0_61 VGND VPWR sky130_fd_sc_hd__tapvpwrvgnd_1
XFILLER_0_18_141 VPWR VGND VPWR VGND sky130_ef_sc_hd__decap_12
XPHY_EDGE_ROW_3_Left_31 VGND VGND VPWR VPWR sky130_fd_sc_hd__decap_3
XFILLER_0_24_177 VPWR VGND VPWR VGND sky130_ef_sc_hd__decap_12
XFILLER_0_24_133 VGND VGND VPWR VPWR sky130_fd_sc_hd__decap_6
XFILLER_0_1_55 VGND VGND VPWR VPWR sky130_fd_sc_hd__fill_1
XFILLER_0_15_111 VGND VGND VPWR VPWR sky130_fd_sc_hd__fill_1
XFILLER_0_21_169 VPWR VGND VPWR VGND sky130_ef_sc_hd__decap_12
XFILLER_0_21_125 VPWR VGND VPWR VGND sky130_ef_sc_hd__decap_12
XFILLER_0_18_3 VPWR VGND VPWR VGND sky130_ef_sc_hd__decap_12
XFILLER_0_4_133 VGND VGND VPWR VPWR sky130_fd_sc_hd__decap_6
XFILLER_0_4_177 VPWR VGND VPWR VGND sky130_ef_sc_hd__decap_12
XFILLER_0_7_3 VPWR VGND VPWR VGND sky130_ef_sc_hd__decap_12
XFILLER_0_1_169 VPWR VGND VPWR VGND sky130_ef_sc_hd__decap_12
XFILLER_0_1_125 VPWR VGND VPWR VGND sky130_ef_sc_hd__decap_12
XTAP_TAPCELL_ROW_14_101 VGND VPWR sky130_fd_sc_hd__tapvpwrvgnd_1
XFILLER_0_13_57 VPWR VGND VPWR VGND sky130_ef_sc_hd__decap_12
XFILLER_0_4_77 VGND VGND VPWR VPWR sky130_fd_sc_hd__decap_6
XFILLER_0_27_153 VPWR VGND VPWR VGND sky130_ef_sc_hd__decap_12
XFILLER_0_18_153 VPWR VGND VPWR VGND sky130_ef_sc_hd__decap_12
XFILLER_0_24_189 VGND VGND VPWR VPWR sky130_fd_sc_hd__fill_1
XFILLER_0_21_57 VPWR VGND VPWR VGND sky130_ef_sc_hd__decap_12
XFILLER_0_15_167 VGND VGND VPWR VPWR sky130_fd_sc_hd__fill_1
XFILLER_0_21_137 VPWR VGND VPWR VGND sky130_ef_sc_hd__decap_12
XFILLER_0_8_109 VPWR VGND VPWR VGND sky130_ef_sc_hd__decap_12
XPHY_EDGE_ROW_1_Right_1 VGND VGND VPWR VPWR sky130_fd_sc_hd__decap_3
XFILLER_0_11_181 VGND VGND VPWR VPWR sky130_fd_sc_hd__decap_8
XTAP_TAPCELL_ROW_17_110 VGND VPWR sky130_fd_sc_hd__tapvpwrvgnd_1
XFILLER_0_4_189 VGND VGND VPWR VPWR sky130_fd_sc_hd__fill_1
XFILLER_0_7_55 VGND VGND VPWR VPWR sky130_fd_sc_hd__fill_1
XFILLER_0_1_137 VPWR VGND VPWR VGND sky130_ef_sc_hd__decap_12
XFILLER_0_13_69 VPWR VGND VPWR VGND sky130_ef_sc_hd__decap_12
XTAP_TAPCELL_ROW_14_102 VGND VPWR sky130_fd_sc_hd__tapvpwrvgnd_1
XFILLER_0_0_181 VGND VGND VPWR VPWR sky130_fd_sc_hd__decap_8
XFILLER_0_27_165 VGND VGND VPWR VPWR sky130_fd_sc_hd__decap_3
XFILLER_0_19_57 VPWR VGND VPWR VGND sky130_ef_sc_hd__decap_12
XFILLER_0_10_15 VPWR VGND VPWR VGND sky130_ef_sc_hd__decap_12
XFILLER_0_18_165 VPWR VGND VPWR VGND sky130_ef_sc_hd__decap_12
XFILLER_0_18_121 VPWR VGND VPWR VGND sky130_ef_sc_hd__decap_12
XFILLER_0_21_69 VPWR VGND VPWR VGND sky130_ef_sc_hd__decap_12
Xcpu_lab6_10 VGND VGND VPWR VPWR an[2] cpu_lab6_10/LO sky130_fd_sc_hd__conb_1
XFILLER_0_15_113 VPWR VGND VPWR VGND sky130_ef_sc_hd__decap_12
XFILLER_0_1_57 VPWR VGND VPWR VGND sky130_ef_sc_hd__decap_12
XFILLER_0_21_149 VPWR VGND VPWR VGND sky130_ef_sc_hd__decap_12
XFILLER_0_21_105 VGND VGND VPWR VPWR sky130_fd_sc_hd__decap_6
XFILLER_0_27_57 VPWR VGND VPWR VGND sky130_ef_sc_hd__decap_12
XTAP_TAPCELL_ROW_17_111 VGND VPWR sky130_fd_sc_hd__tapvpwrvgnd_1
XPHY_EDGE_ROW_24_Right_24 VGND VGND VPWR VPWR sky130_fd_sc_hd__decap_3
XFILLER_0_23_3 VPWR VGND VPWR VGND sky130_ef_sc_hd__decap_12
XPHY_EDGE_ROW_15_Right_15 VGND VGND VPWR VPWR sky130_fd_sc_hd__decap_3
XFILLER_0_1_105 VGND VGND VPWR VPWR sky130_fd_sc_hd__decap_6
XFILLER_0_13_15 VPWR VGND VPWR VGND sky130_ef_sc_hd__decap_12
XTAP_TAPCELL_ROW_14_103 VGND VPWR sky130_fd_sc_hd__tapvpwrvgnd_1
XPHY_EDGE_ROW_19_Left_47 VGND VGND VPWR VPWR sky130_fd_sc_hd__decap_3
XFILLER_0_1_149 VPWR VGND VPWR VGND sky130_ef_sc_hd__decap_12
XFILLER_0_19_69 VPWR VGND VPWR VGND sky130_ef_sc_hd__decap_12
XFILLER_0_10_27 VGND VGND VPWR VPWR sky130_fd_sc_hd__fill_1
XFILLER_0_18_133 VGND VGND VPWR VPWR sky130_fd_sc_hd__decap_6
XFILLER_0_21_15 VPWR VGND VPWR VGND sky130_ef_sc_hd__decap_12
XFILLER_0_18_177 VPWR VGND VPWR VGND sky130_ef_sc_hd__decap_12
XFILLER_0_15_169 VPWR VGND VPWR VGND sky130_ef_sc_hd__decap_12
XFILLER_0_15_125 VPWR VGND VPWR VGND sky130_ef_sc_hd__decap_12
XFILLER_0_1_69 VPWR VGND VPWR VGND sky130_ef_sc_hd__decap_12
XFILLER_0_11_81 VPWR VGND VPWR VGND sky130_ef_sc_hd__decap_12
Xcpu_lab6_11 VGND VGND VPWR VPWR an[3] cpu_lab6_11/LO sky130_fd_sc_hd__conb_1
XPHY_EDGE_ROW_7_Left_35 VGND VGND VPWR VPWR sky130_fd_sc_hd__decap_3
XFILLER_0_16_26 VGND VGND VPWR VPWR sky130_fd_sc_hd__fill_2
XFILLER_0_12_139 VGND VGND VPWR VPWR sky130_fd_sc_hd__fill_1
XFILLER_0_7_111 VGND VGND VPWR VPWR sky130_fd_sc_hd__fill_1
XFILLER_0_11_161 VGND VGND VPWR VPWR sky130_fd_sc_hd__decap_6
XFILLER_0_27_69 VPWR VGND VPWR VGND sky130_ef_sc_hd__decap_12
XTAP_TAPCELL_ROW_17_112 VGND VPWR sky130_fd_sc_hd__tapvpwrvgnd_1
XFILLER_0_7_57 VPWR VGND VPWR VGND sky130_ef_sc_hd__decap_12
XFILLER_0_13_27 VPWR VGND VPWR VGND sky130_ef_sc_hd__decap_12
XFILLER_0_24_15 VPWR VGND VPWR VGND sky130_ef_sc_hd__decap_12
XPHY_EDGE_ROW_20_Left_48 VGND VGND VPWR VPWR sky130_fd_sc_hd__decap_3
XFILLER_0_5_3 VPWR VGND VPWR VGND sky130_ef_sc_hd__decap_12
XFILLER_0_19_15 VPWR VGND VPWR VGND sky130_ef_sc_hd__decap_12
XFILLER_0_27_189 VGND VGND VPWR VPWR sky130_fd_sc_hd__fill_1
XFILLER_0_18_189 VGND VGND VPWR VPWR sky130_fd_sc_hd__fill_1
XPHY_EDGE_ROW_23_Left_51 VGND VGND VPWR VPWR sky130_fd_sc_hd__decap_3
XFILLER_0_21_27 VPWR VGND VPWR VGND sky130_ef_sc_hd__decap_12
XFILLER_0_1_15 VPWR VGND VPWR VGND sky130_ef_sc_hd__decap_12
XFILLER_0_23_181 VGND VGND VPWR VPWR sky130_fd_sc_hd__decap_8
XFILLER_0_15_137 VPWR VGND VPWR VGND sky130_ef_sc_hd__decap_12
XFILLER_0_11_93 VPWR VGND VPWR VGND sky130_ef_sc_hd__decap_12
XFILLER_0_7_167 VGND VGND VPWR VPWR sky130_fd_sc_hd__fill_1
XFILLER_0_7_189 VGND VGND VPWR VPWR sky130_fd_sc_hd__fill_1
XFILLER_0_27_15 VPWR VGND VPWR VGND sky130_ef_sc_hd__decap_12
XFILLER_0_7_69 VPWR VGND VPWR VGND sky130_ef_sc_hd__decap_12
XFILLER_0_17_81 VPWR VGND VPWR VGND sky130_ef_sc_hd__decap_12
XFILLER_0_3_181 VGND VGND VPWR VPWR sky130_fd_sc_hd__decap_8
XPHY_EDGE_ROW_5_Right_5 VGND VGND VPWR VPWR sky130_fd_sc_hd__decap_3
XFILLER_0_13_39 VPWR VGND VPWR VGND sky130_ef_sc_hd__decap_12
XTAP_TAPCELL_ROW_20_119 VGND VPWR sky130_fd_sc_hd__tapvpwrvgnd_1
XFILLER_0_24_27 VGND VGND VPWR VPWR sky130_fd_sc_hd__fill_1
XFILLER_0_4_15 VPWR VGND VPWR VGND sky130_ef_sc_hd__decap_12
XFILLER_0_19_27 VPWR VGND VPWR VGND sky130_ef_sc_hd__decap_12
XFILLER_0_10_29 VPWR VGND VPWR VGND sky130_ef_sc_hd__decap_12
XFILLER_0_27_113 VPWR VGND VPWR VGND sky130_ef_sc_hd__decap_12
XTAP_TAPCELL_ROW_9_86 VGND VPWR sky130_fd_sc_hd__tapvpwrvgnd_1
XFILLER_0_25_81 VPWR VGND VPWR VGND sky130_ef_sc_hd__decap_12
XFILLER_0_21_39 VPWR VGND VPWR VGND sky130_ef_sc_hd__decap_12
XFILLER_0_1_27 VPWR VGND VPWR VGND sky130_ef_sc_hd__decap_12
XFILLER_0_15_149 VPWR VGND VPWR VGND sky130_ef_sc_hd__decap_12
XFILLER_0_15_105 VGND VGND VPWR VPWR sky130_fd_sc_hd__decap_6
XFILLER_0_20_141 VPWR VGND VPWR VGND sky130_ef_sc_hd__decap_12
XFILLER_0_7_113 VPWR VGND VPWR VGND sky130_ef_sc_hd__decap_12
XFILLER_0_27_27 VGND VGND VPWR VPWR sky130_fd_sc_hd__fill_1
XFILLER_0_7_15 VPWR VGND VPWR VGND sky130_ef_sc_hd__decap_12
XTAP_TAPCELL_ROW_23_128 VGND VPWR sky130_fd_sc_hd__tapvpwrvgnd_1
XFILLER_0_17_93 VPWR VGND VPWR VGND sky130_ef_sc_hd__decap_12
XPHY_EDGE_ROW_20_Right_20 VGND VGND VPWR VPWR sky130_fd_sc_hd__decap_3
XPHY_EDGE_ROW_11_Right_11 VGND VGND VPWR VPWR sky130_fd_sc_hd__decap_3
XFILLER_0_21_3 VPWR VGND VPWR VGND sky130_ef_sc_hd__decap_12
XFILLER_0_0_141 VPWR VGND VPWR VGND sky130_ef_sc_hd__decap_12
XFILLER_0_4_27 VGND VGND VPWR VPWR sky130_fd_sc_hd__fill_1
XFILLER_0_14_83 VGND VGND VPWR VPWR sky130_fd_sc_hd__fill_1
XFILLER_0_27_169 VPWR VGND VPWR VGND sky130_ef_sc_hd__decap_12
XFILLER_0_27_125 VPWR VGND VPWR VGND sky130_ef_sc_hd__decap_12
XFILLER_0_19_39 VPWR VGND VPWR VGND sky130_ef_sc_hd__decap_12
XTAP_TAPCELL_ROW_0_56 VGND VPWR sky130_fd_sc_hd__tapvpwrvgnd_1
XTAP_TAPCELL_ROW_9_87 VGND VPWR sky130_fd_sc_hd__tapvpwrvgnd_1
XFILLER_0_25_93 VPWR VGND VPWR VGND sky130_ef_sc_hd__decap_12
XFILLER_0_24_139 VGND VGND VPWR VPWR sky130_fd_sc_hd__fill_1
XFILLER_0_5_81 VPWR VGND VPWR VGND sky130_ef_sc_hd__decap_12
XFILLER_0_23_161 VGND VGND VPWR VPWR sky130_fd_sc_hd__decap_6
XFILLER_0_1_39 VPWR VGND VPWR VGND sky130_ef_sc_hd__decap_12
XFILLER_0_16_29 VPWR VGND VPWR VGND sky130_ef_sc_hd__decap_12
XFILLER_0_16_18 VGND VGND VPWR VPWR sky130_fd_sc_hd__decap_8
XFILLER_0_20_153 VPWR VGND VPWR VGND sky130_ef_sc_hd__decap_12
XTAP_TAPCELL_ROW_6_77 VGND VPWR sky130_fd_sc_hd__tapvpwrvgnd_1
XFILLER_0_12_109 VPWR VGND VPWR VGND sky130_ef_sc_hd__decap_12
XTAP_TAPCELL_ROW_26_137 VGND VPWR sky130_fd_sc_hd__tapvpwrvgnd_1
XFILLER_0_22_83 VGND VGND VPWR VPWR sky130_fd_sc_hd__fill_1
XFILLER_0_7_125 VPWR VGND VPWR VGND sky130_ef_sc_hd__decap_12
XFILLER_0_7_169 VPWR VGND VPWR VGND sky130_ef_sc_hd__decap_12
XFILLER_0_4_139 VGND VGND VPWR VPWR sky130_fd_sc_hd__fill_1
XFILLER_0_7_27 VPWR VGND VPWR VGND sky130_ef_sc_hd__decap_12
XTAP_TAPCELL_ROW_23_129 VGND VPWR sky130_fd_sc_hd__tapvpwrvgnd_1
XFILLER_0_16_6 VPWR VGND VPWR VGND sky130_ef_sc_hd__decap_12
XFILLER_0_3_161 VGND VGND VPWR VPWR sky130_fd_sc_hd__decap_6
XFILLER_0_0_153 VPWR VGND VPWR VGND sky130_ef_sc_hd__decap_12
XFILLER_0_24_29 VPWR VGND VPWR VGND sky130_ef_sc_hd__decap_12
XTAP_TAPCELL_ROW_13_98 VGND VPWR sky130_fd_sc_hd__tapvpwrvgnd_1
XFILLER_0_27_137 VGND VGND VPWR VPWR sky130_fd_sc_hd__decap_3
XFILLER_0_27_104 VGND VGND VPWR VPWR sky130_fd_sc_hd__decap_8
XFILLER_0_3_3 VPWR VGND VPWR VGND sky130_ef_sc_hd__decap_12
XTAP_TAPCELL_ROW_0_57 VGND VPWR sky130_fd_sc_hd__tapvpwrvgnd_1
XTAP_TAPCELL_ROW_9_88 VGND VPWR sky130_fd_sc_hd__tapvpwrvgnd_1
XFILLER_0_17_181 VGND VGND VPWR VPWR sky130_fd_sc_hd__decap_8
XFILLER_0_5_93 VPWR VGND VPWR VGND sky130_ef_sc_hd__decap_12
XFILLER_0_11_30 VPWR VGND VPWR VGND sky130_ef_sc_hd__decap_12
XPHY_EDGE_ROW_27_Left_55 VGND VGND VPWR VPWR sky130_fd_sc_hd__decap_3
XFILLER_0_20_165 VPWR VGND VPWR VGND sky130_ef_sc_hd__decap_12
XFILLER_0_20_121 VPWR VGND VPWR VGND sky130_ef_sc_hd__decap_12
XTAP_TAPCELL_ROW_6_78 VGND VPWR sky130_fd_sc_hd__tapvpwrvgnd_1
XPHY_EDGE_ROW_11_Left_39 VGND VGND VPWR VPWR sky130_fd_sc_hd__decap_3
XTAP_TAPCELL_ROW_26_138 VGND VPWR sky130_fd_sc_hd__tapvpwrvgnd_1
XFILLER_0_2_83 VGND VGND VPWR VPWR sky130_fd_sc_hd__fill_1
XFILLER_0_7_137 VPWR VGND VPWR VGND sky130_ef_sc_hd__decap_12
XFILLER_0_27_29 VPWR VGND VPWR VGND sky130_ef_sc_hd__decap_12
XFILLER_0_7_39 VPWR VGND VPWR VGND sky130_ef_sc_hd__decap_12
XTAP_TAPCELL_ROW_3_68 VGND VPWR sky130_fd_sc_hd__tapvpwrvgnd_1
XPHY_EDGE_ROW_9_Right_9 VGND VGND VPWR VPWR sky130_fd_sc_hd__decap_3
XFILLER_0_0_165 VGND VGND VPWR VPWR sky130_fd_sc_hd__decap_3
XPHY_EDGE_ROW_14_Left_42 VGND VGND VPWR VPWR sky130_fd_sc_hd__decap_3
XFILLER_0_4_29 VPWR VGND VPWR VGND sky130_ef_sc_hd__decap_12
XFILLER_0_14_41 VPWR VGND VPWR VGND sky130_ef_sc_hd__decap_12
XFILLER_0_14_85 VPWR VGND VPWR VGND sky130_ef_sc_hd__decap_12
XTAP_TAPCELL_ROW_13_99 VGND VPWR sky130_fd_sc_hd__tapvpwrvgnd_1
XTAP_TAPCELL_ROW_0_58 VGND VPWR sky130_fd_sc_hd__tapvpwrvgnd_1
XFILLER_0_25_51 VGND VGND VPWR VPWR sky130_fd_sc_hd__decap_4
XFILLER_0_11_42 VPWR VGND VPWR VGND sky130_ef_sc_hd__decap_12
XTAP_TAPCELL_ROW_10_89 VGND VPWR sky130_fd_sc_hd__tapvpwrvgnd_1
XFILLER_0_14_141 VPWR VGND VPWR VGND sky130_ef_sc_hd__decap_12
XFILLER_0_20_177 VPWR VGND VPWR VGND sky130_ef_sc_hd__decap_12
XFILLER_0_20_133 VGND VGND VPWR VPWR sky130_fd_sc_hd__decap_6
XPHY_EDGE_ROW_2_Left_30 VGND VGND VPWR VPWR sky130_fd_sc_hd__decap_3
XTAP_TAPCELL_ROW_6_79 VGND VPWR sky130_fd_sc_hd__tapvpwrvgnd_1
XFILLER_0_22_85 VPWR VGND VPWR VGND sky130_ef_sc_hd__decap_12
XFILLER_0_22_41 VPWR VGND VPWR VGND sky130_ef_sc_hd__decap_12
XFILLER_0_7_105 VGND VGND VPWR VPWR sky130_fd_sc_hd__decap_6
XFILLER_0_7_149 VPWR VGND VPWR VGND sky130_ef_sc_hd__decap_12
XFILLER_0_11_111 VGND VGND VPWR VPWR sky130_fd_sc_hd__fill_1
XTAP_TAPCELL_ROW_26_139 VGND VPWR sky130_fd_sc_hd__tapvpwrvgnd_1
XFILLER_0_17_30 VPWR VGND VPWR VGND sky130_ef_sc_hd__decap_12
XTAP_TAPCELL_ROW_3_69 VGND VPWR sky130_fd_sc_hd__tapvpwrvgnd_1
XFILLER_0_8_83 VGND VGND VPWR VPWR sky130_fd_sc_hd__fill_1
XFILLER_0_14_53 VPWR VGND VPWR VGND sky130_ef_sc_hd__decap_12
XFILLER_0_14_97 VPWR VGND VPWR VGND sky130_ef_sc_hd__decap_12
XTAP_TAPCELL_ROW_0_59 VGND VPWR sky130_fd_sc_hd__tapvpwrvgnd_1
XFILLER_0_18_139 VGND VGND VPWR VPWR sky130_fd_sc_hd__fill_1
XFILLER_0_5_51 VGND VGND VPWR VPWR sky130_fd_sc_hd__decap_4
XFILLER_0_24_109 VPWR VGND VPWR VGND sky130_ef_sc_hd__decap_12
XFILLER_0_17_161 VGND VGND VPWR VPWR sky130_fd_sc_hd__decap_6
XPHY_EDGE_ROW_27_Right_27 VGND VGND VPWR VPWR sky130_fd_sc_hd__decap_3
XPHY_EDGE_ROW_18_Right_18 VGND VGND VPWR VPWR sky130_fd_sc_hd__decap_3
XFILLER_0_11_54 VGND VGND VPWR VPWR sky130_fd_sc_hd__fill_2
XFILLER_0_14_153 VPWR VGND VPWR VGND sky130_ef_sc_hd__decap_12
XFILLER_0_22_97 VPWR VGND VPWR VGND sky130_ef_sc_hd__decap_12
XFILLER_0_22_53 VPWR VGND VPWR VGND sky130_ef_sc_hd__decap_12
XFILLER_0_20_189 VGND VGND VPWR VPWR sky130_fd_sc_hd__fill_1
XFILLER_0_11_167 VGND VGND VPWR VPWR sky130_fd_sc_hd__fill_1
XFILLER_0_11_189 VGND VGND VPWR VPWR sky130_fd_sc_hd__fill_1
XFILLER_0_2_85 VPWR VGND VPWR VGND sky130_ef_sc_hd__decap_12
XFILLER_0_2_41 VPWR VGND VPWR VGND sky130_ef_sc_hd__decap_12
XFILLER_0_17_42 VPWR VGND VPWR VGND sky130_ef_sc_hd__decap_12
XFILLER_0_4_109 VPWR VGND VPWR VGND sky130_ef_sc_hd__decap_12
XPHY_EDGE_ROW_0_Right_0 VGND VGND VPWR VPWR sky130_fd_sc_hd__decap_3
XFILLER_0_0_189 VGND VGND VPWR VPWR sky130_fd_sc_hd__fill_1
XFILLER_0_14_6 VPWR VGND VPWR VGND sky130_ef_sc_hd__decap_12
XFILLER_0_14_65 VPWR VGND VPWR VGND sky130_ef_sc_hd__decap_12
XFILLER_0_1_3 VPWR VGND VPWR VGND sky130_ef_sc_hd__decap_12
XFILLER_0_9_181 VGND VGND VPWR VPWR sky130_fd_sc_hd__decap_8
XFILLER_0_14_121 VPWR VGND VPWR VGND sky130_ef_sc_hd__decap_12
XFILLER_0_14_165 VPWR VGND VPWR VGND sky130_ef_sc_hd__decap_12
XFILLER_0_22_65 VPWR VGND VPWR VGND sky130_ef_sc_hd__decap_12
XFILLER_0_2_97 VPWR VGND VPWR VGND sky130_ef_sc_hd__decap_12
XFILLER_0_2_53 VPWR VGND VPWR VGND sky130_ef_sc_hd__decap_12
XFILLER_0_11_113 VPWR VGND VPWR VGND sky130_ef_sc_hd__decap_12
XFILLER_0_17_54 VGND VGND VPWR VPWR sky130_fd_sc_hd__fill_2
XTAP_TAPCELL_ROW_7_80 VGND VPWR sky130_fd_sc_hd__tapvpwrvgnd_1
XTAP_TAPCELL_ROW_13_100 VGND VPWR sky130_fd_sc_hd__tapvpwrvgnd_1
XFILLER_0_0_113 VPWR VGND VPWR VGND sky130_ef_sc_hd__decap_12
XFILLER_0_8_41 VPWR VGND VPWR VGND sky130_ef_sc_hd__decap_12
XFILLER_0_8_85 VPWR VGND VPWR VGND sky130_ef_sc_hd__decap_12
XFILLER_0_14_77 VGND VGND VPWR VPWR sky130_fd_sc_hd__decap_6
XPHY_EDGE_ROW_18_Left_46 VGND VGND VPWR VPWR sky130_fd_sc_hd__decap_3
XFILLER_0_26_141 VPWR VGND VPWR VGND sky130_ef_sc_hd__decap_12
XFILLER_0_23_111 VGND VGND VPWR VPWR sky130_fd_sc_hd__fill_1
XFILLER_0_14_177 VPWR VGND VPWR VGND sky130_ef_sc_hd__decap_12
XFILLER_0_14_133 VGND VGND VPWR VPWR sky130_fd_sc_hd__decap_6
XFILLER_0_22_77 VGND VGND VPWR VPWR sky130_fd_sc_hd__decap_6
XFILLER_0_2_65 VPWR VGND VPWR VGND sky130_ef_sc_hd__decap_12
XFILLER_0_6_141 VPWR VGND VPWR VGND sky130_ef_sc_hd__decap_12
XFILLER_0_11_125 VPWR VGND VPWR VGND sky130_ef_sc_hd__decap_12
XFILLER_0_11_169 VPWR VGND VPWR VGND sky130_ef_sc_hd__decap_12
XPHY_EDGE_ROW_6_Left_34 VGND VGND VPWR VPWR sky130_fd_sc_hd__decap_3
XFILLER_0_3_111 VGND VGND VPWR VPWR sky130_fd_sc_hd__fill_1
XTAP_TAPCELL_ROW_7_81 VGND VPWR sky130_fd_sc_hd__tapvpwrvgnd_1
XFILLER_0_0_169 VPWR VGND VPWR VGND sky130_ef_sc_hd__decap_12
XFILLER_0_0_125 VPWR VGND VPWR VGND sky130_ef_sc_hd__decap_12
XFILLER_0_8_53 VPWR VGND VPWR VGND sky130_ef_sc_hd__decap_12
XFILLER_0_8_97 VPWR VGND VPWR VGND sky130_ef_sc_hd__decap_12
XTAP_TAPCELL_ROW_4_71 VGND VPWR sky130_fd_sc_hd__tapvpwrvgnd_1
XFILLER_0_26_153 VPWR VGND VPWR VGND sky130_ef_sc_hd__decap_12
XFILLER_0_25_55 VGND VGND VPWR VPWR sky130_fd_sc_hd__fill_1
XFILLER_0_18_109 VPWR VGND VPWR VGND sky130_ef_sc_hd__decap_12
XFILLER_0_23_189 VGND VGND VPWR VPWR sky130_fd_sc_hd__fill_1
XFILLER_0_23_167 VGND VGND VPWR VPWR sky130_fd_sc_hd__fill_1
XFILLER_0_11_57 VPWR VGND VPWR VGND sky130_ef_sc_hd__decap_12
XFILLER_0_14_189 VGND VGND VPWR VPWR sky130_fd_sc_hd__fill_1
XPHY_EDGE_ROW_23_Right_23 VGND VGND VPWR VPWR sky130_fd_sc_hd__decap_3
XPHY_EDGE_ROW_14_Right_14 VGND VGND VPWR VPWR sky130_fd_sc_hd__decap_3
XFILLER_0_9_161 VGND VGND VPWR VPWR sky130_fd_sc_hd__decap_6
XPHY_EDGE_ROW_22_Left_50 VGND VGND VPWR VPWR sky130_fd_sc_hd__decap_3
XFILLER_0_2_77 VGND VGND VPWR VPWR sky130_fd_sc_hd__decap_6
XFILLER_0_11_137 VPWR VGND VPWR VGND sky130_ef_sc_hd__decap_12
XFILLER_0_6_153 VPWR VGND VPWR VGND sky130_ef_sc_hd__decap_12
XTAP_TAPCELL_ROW_11_92 VGND VPWR sky130_fd_sc_hd__tapvpwrvgnd_1
XTAP_TAPCELL_ROW_7_82 VGND VPWR sky130_fd_sc_hd__tapvpwrvgnd_1
XFILLER_0_3_167 VGND VGND VPWR VPWR sky130_fd_sc_hd__fill_1
XFILLER_0_3_189 VGND VGND VPWR VPWR sky130_fd_sc_hd__fill_1
XFILLER_0_0_137 VGND VGND VPWR VPWR sky130_fd_sc_hd__decap_3
XFILLER_0_0_104 VGND VGND VPWR VPWR sky130_fd_sc_hd__decap_8
XPHY_EDGE_ROW_4_Right_4 VGND VGND VPWR VPWR sky130_fd_sc_hd__decap_3
XFILLER_0_8_65 VPWR VGND VPWR VGND sky130_ef_sc_hd__decap_12
XTAP_TAPCELL_ROW_4_72 VGND VPWR sky130_fd_sc_hd__tapvpwrvgnd_1
XFILLER_0_12_6 VPWR VGND VPWR VGND sky130_ef_sc_hd__decap_12
XFILLER_0_26_121 VPWR VGND VPWR VGND sky130_ef_sc_hd__decap_12
XFILLER_0_26_165 VPWR VGND VPWR VGND sky130_ef_sc_hd__decap_12
XFILLER_0_5_55 VGND VGND VPWR VPWR sky130_fd_sc_hd__fill_1
XFILLER_0_10_3 VPWR VGND VPWR VGND sky130_ef_sc_hd__decap_12
XFILLER_0_23_113 VPWR VGND VPWR VGND sky130_ef_sc_hd__decap_12
XFILLER_0_11_69 VPWR VGND VPWR VGND sky130_ef_sc_hd__decap_12
XTAP_TAPCELL_ROW_1_62 VGND VPWR sky130_fd_sc_hd__tapvpwrvgnd_1
XFILLER_0_11_105 VGND VGND VPWR VPWR sky130_fd_sc_hd__decap_6
XFILLER_0_11_149 VPWR VGND VPWR VGND sky130_ef_sc_hd__decap_12
XFILLER_0_6_121 VPWR VGND VPWR VGND sky130_ef_sc_hd__decap_12
XFILLER_0_6_165 VPWR VGND VPWR VGND sky130_ef_sc_hd__decap_12
XTAP_TAPCELL_ROW_11_93 VGND VPWR sky130_fd_sc_hd__tapvpwrvgnd_1
XFILLER_0_17_57 VPWR VGND VPWR VGND sky130_ef_sc_hd__decap_12
XTAP_TAPCELL_ROW_22_125 VGND VPWR sky130_fd_sc_hd__tapvpwrvgnd_1
XFILLER_0_3_113 VPWR VGND VPWR VGND sky130_ef_sc_hd__decap_12
XFILLER_0_8_77 VGND VGND VPWR VPWR sky130_fd_sc_hd__decap_6
XTAP_TAPCELL_ROW_4_73 VGND VPWR sky130_fd_sc_hd__tapvpwrvgnd_1
XFILLER_0_25_57 VPWR VGND VPWR VGND sky130_ef_sc_hd__decap_12
XFILLER_0_26_177 VPWR VGND VPWR VGND sky130_ef_sc_hd__decap_12
XFILLER_0_26_133 VGND VGND VPWR VPWR sky130_fd_sc_hd__decap_6
XFILLER_0_17_111 VGND VGND VPWR VPWR sky130_fd_sc_hd__fill_1
XFILLER_0_23_169 VPWR VGND VPWR VGND sky130_ef_sc_hd__decap_12
XFILLER_0_23_125 VPWR VGND VPWR VGND sky130_ef_sc_hd__decap_12
XTAP_TAPCELL_ROW_1_63 VGND VPWR sky130_fd_sc_hd__tapvpwrvgnd_1
XFILLER_0_20_139 VGND VGND VPWR VPWR sky130_fd_sc_hd__fill_1
XFILLER_0_6_133 VGND VGND VPWR VPWR sky130_fd_sc_hd__decap_6
XFILLER_0_6_177 VPWR VGND VPWR VGND sky130_ef_sc_hd__decap_12
XTAP_TAPCELL_ROW_25_134 VGND VPWR sky130_fd_sc_hd__tapvpwrvgnd_1
XFILLER_0_17_69 VPWR VGND VPWR VGND sky130_ef_sc_hd__decap_12
XTAP_TAPCELL_ROW_11_94 VGND VPWR sky130_fd_sc_hd__tapvpwrvgnd_1
XFILLER_0_3_125 VPWR VGND VPWR VGND sky130_ef_sc_hd__decap_12
XFILLER_0_3_169 VPWR VGND VPWR VGND sky130_ef_sc_hd__decap_12
XTAP_TAPCELL_ROW_22_126 VGND VPWR sky130_fd_sc_hd__tapvpwrvgnd_1
XFILLER_0_14_26 VGND VGND VPWR VPWR sky130_fd_sc_hd__fill_2
XFILLER_0_26_189 VGND VGND VPWR VPWR sky130_fd_sc_hd__fill_1
XFILLER_0_25_69 VPWR VGND VPWR VGND sky130_ef_sc_hd__decap_12
XFILLER_0_5_57 VPWR VGND VPWR VGND sky130_ef_sc_hd__decap_12
XFILLER_0_17_189 VGND VGND VPWR VPWR sky130_fd_sc_hd__fill_1
XFILLER_0_17_167 VGND VGND VPWR VPWR sky130_fd_sc_hd__fill_1
XFILLER_0_23_137 VPWR VGND VPWR VGND sky130_ef_sc_hd__decap_12
XTAP_TAPCELL_ROW_1_64 VGND VPWR sky130_fd_sc_hd__tapvpwrvgnd_1
XFILLER_0_22_15 VPWR VGND VPWR VGND sky130_ef_sc_hd__decap_12
XFILLER_0_13_181 VGND VGND VPWR VPWR sky130_fd_sc_hd__decap_8
XFILLER_0_6_189 VGND VGND VPWR VPWR sky130_fd_sc_hd__fill_1
XPHY_EDGE_ROW_10_Right_10 VGND VGND VPWR VPWR sky130_fd_sc_hd__decap_3
XTAP_TAPCELL_ROW_25_135 VGND VPWR sky130_fd_sc_hd__tapvpwrvgnd_1
XPHY_EDGE_ROW_26_Left_54 VGND VGND VPWR VPWR sky130_fd_sc_hd__decap_3
XFILLER_0_3_137 VPWR VGND VPWR VGND sky130_ef_sc_hd__decap_12
XPHY_EDGE_ROW_10_Left_38 VGND VGND VPWR VPWR sky130_fd_sc_hd__decap_3
XTAP_TAPCELL_ROW_22_127 VGND VPWR sky130_fd_sc_hd__tapvpwrvgnd_1
XFILLER_0_26_3 VPWR VGND VPWR VGND sky130_ef_sc_hd__decap_12
XPHY_EDGE_ROW_8_Right_8 VGND VGND VPWR VPWR sky130_fd_sc_hd__decap_3
XPHY_EDGE_ROW_13_Left_41 VGND VGND VPWR VPWR sky130_fd_sc_hd__decap_3
XFILLER_0_25_15 VPWR VGND VPWR VGND sky130_ef_sc_hd__decap_12
XFILLER_0_5_69 VPWR VGND VPWR VGND sky130_ef_sc_hd__decap_12
XFILLER_0_17_113 VPWR VGND VPWR VGND sky130_ef_sc_hd__decap_12
XFILLER_0_15_81 VPWR VGND VPWR VGND sky130_ef_sc_hd__decap_12
XFILLER_0_23_149 VPWR VGND VPWR VGND sky130_ef_sc_hd__decap_12
XFILLER_0_23_105 VGND VGND VPWR VPWR sky130_fd_sc_hd__decap_6
XFILLER_0_22_27 VGND VGND VPWR VPWR sky130_fd_sc_hd__fill_1
XFILLER_0_2_15 VPWR VGND VPWR VGND sky130_ef_sc_hd__decap_12
XTAP_TAPCELL_ROW_25_136 VGND VPWR sky130_fd_sc_hd__tapvpwrvgnd_1
XFILLER_0_10_141 VPWR VGND VPWR VGND sky130_ef_sc_hd__decap_12
XFILLER_0_3_105 VGND VGND VPWR VPWR sky130_fd_sc_hd__decap_6
XFILLER_0_3_149 VPWR VGND VPWR VGND sky130_ef_sc_hd__decap_12
XFILLER_0_23_81 VPWR VGND VPWR VGND sky130_ef_sc_hd__decap_12
XFILLER_0_19_3 VPWR VGND VPWR VGND sky130_ef_sc_hd__decap_12
XFILLER_0_0_81 VGND VGND VPWR VPWR sky130_fd_sc_hd__decap_3
XFILLER_0_25_27 VPWR VGND VPWR VGND sky130_ef_sc_hd__decap_12
XFILLER_0_8_3 VPWR VGND VPWR VGND sky130_ef_sc_hd__decap_12
XFILLER_0_17_169 VPWR VGND VPWR VGND sky130_ef_sc_hd__decap_12
XFILLER_0_17_125 VPWR VGND VPWR VGND sky130_ef_sc_hd__decap_12
XFILLER_0_15_93 VPWR VGND VPWR VGND sky130_ef_sc_hd__decap_12
XFILLER_0_5_15 VPWR VGND VPWR VGND sky130_ef_sc_hd__decap_12
XFILLER_0_11_18 VPWR VGND VPWR VGND sky130_ef_sc_hd__decap_12
XFILLER_0_14_139 VGND VGND VPWR VPWR sky130_fd_sc_hd__fill_1
XFILLER_0_20_109 VPWR VGND VPWR VGND sky130_ef_sc_hd__decap_12
XFILLER_0_9_111 VGND VGND VPWR VPWR sky130_fd_sc_hd__fill_1
XFILLER_0_13_161 VGND VGND VPWR VPWR sky130_fd_sc_hd__decap_6
XFILLER_0_2_27 VGND VGND VPWR VPWR sky130_fd_sc_hd__fill_1
XFILLER_0_10_153 VPWR VGND VPWR VGND sky130_ef_sc_hd__decap_12